*$
* DRV8701E
*****************************************************************************
* (C) Copyright 2015 Texas Instruments Incorporated. All rights reserved.                                            
*****************************************************************************
** This model is designed as an aid for customers of Texas Instruments.
** TI and its licensors and suppliers make no warranties, either expressed
** or implied, with respect to this model, including the warranties of 
** merchantability or fitness for a particular purpose.  The model is
** provided solely on an "as is" basis.  The entire risk as to its quality
** and performance is with the customer
*****************************************************************************
*
* This model is subject to change without notice. Texas Instruments
* Incorporated is not responsible for updating this model.
*
*****************************************************************************
*
** Released by: WEBENCH Design Center, Texas Instruments Inc.
* Part: DRV8701E
* Date: 12MAR2015
* Model Type:  TRANSIENT
* Simulator: PSPICE
* Simulator Version: PSPICE 16.2.0.p001
* EVM Order Number: DRV8701EVM
* EVM Users Guide: NA
* Datasheet: SLVSCX5 –FEBRUARY 2015
*
* Model Version: Final 1.00
*
*****************************************************************************
*
* Updates:
*
* Final 1.00
* Release to Web.
*
*****************************************************************************
.SUBCKT DRV8701E_TRANS AVDD DVDD EN GH1 GH2 GL1 GL2 GND IDRIVE nFAULT nSLEEP PH
+  PPAD SH1 SH2 SN SNSOUT SO SP VCP VM VREF  GND_1 CPH CPL
RGND_1 GND_1 GND 1m 
RCPH CPH 0 1MEG
RCPL CPL 0 1MEG
RCPH1 CPH 0 1MEG
RCPL1 CPL 0 1MEG
E_VM VM1 0 VM 0 1
R_U104_R2         U104_N15033359 DRV_EN  5  
R_U104_R6         NSLEEP_OK U104_NSLEEP_OK_D  14.4k  
X_U104_S1    NSLEEP_OK 0 VCP VM1 POWERUP_VCP_U104_S1 
C_U104_C2         0 DRV_EN  1n  
X_U104_U33         DVDD U104_N16584186 U104_N16585931 AND2_BASIC_GEN PARAMS:
+  VDD=1 VSS=0 VTHRESH=500E-3
X_U104_U28         U104_N16560585 U104_N16550556 U104_AVDD_CURRENT_LIMITED
+  U104_N16550610 srlatchrhp_basic_gen PARAMS: VDD=1 VSS=0 VTHRESH=0.5
C_U104_C1         0 UVLO_N  1n  TC=0,0 
V_U104_VCP_HYS         U104_N14801989 0 50m
E_U104_ABM7         U104_N14801985 0 VALUE { V(VM1)+2.8    }
V_U104_V5         U104_N16545706 0 3.28
X_U104_U29         AVDD U104_N16550524 U104_N16560772 COMP_BASIC_GEN PARAMS:
+  VDD=1 VSS=0 VTHRESH=0.5
E_U104_ABM9         U104_VCP_EN 0 VALUE { IF ( V(U104_N15071514) > 0.5 , 1 , 0)
+     }
G_U104_ABMII2         U104_N16534469 AVDD VALUE { IF(V(NSLEEP_OK)>0.5,
+  IF(V(U104_AVDD_CURRENT_LIMITED) <0.5, 160m, 30m), - 8.33m)    }
R_U104_RCPD         UVLO_N U104_N15071514  216.404 TC=0,0 
X_U104_U21         OCP_SDWN VCP_DELAY U104_DELAY OR2_BASIC_GEN PARAMS: VDD=1
+  VSS=0 VTHRESH=500E-3
X_U104_U13         VM1 U104_N14794409 U104_N14794405 U104_N15027948
+  COMPHYS_BASIC_GEN PARAMS: VDD=1 VSS=0 VTHRESH=0.5
R_U104_R1         U104_N15027948 UVLO_N  14430.01443 TC=0,0 
C_U104_CCPD         0 U104_N15071514  1n  TC=0,0 
V_U104_VM_UVLO_TH         U104_N14794409 0 5.6
X_U104_U22         AVDD U104_N16534469 d_d1 PARAMS:
X_U104_U20         U104_N15027948 UVLO_N d_d1 PARAMS:
X_U104_U27         NSLEEP_OK U104_N16546715 INV_BASIC_GEN PARAMS: VDD=1 VSS=0
+  VTHRESH=500E-3
V_U104_VM_HYS         U104_N14794405 0 0.2
E_U104_ABM13         U104_N16534469 0 VALUE { IF(V(U104_BEGIN_AVDD)>0.5,
+  IF(V(UVLO_N) > 0.5, MIN ( V (VM1) , 5 ), 0), 0)    }
R_U104_R3         U104_N16548901 0  1k  
X_U104_U30         U104_VM_OK1 U104_N16550556 INV_BASIC_GEN PARAMS: VDD=1 VSS=0
+  VTHRESH=500E-3
X_U104_U16         U104_N15071514 UVLO_N d_d1 PARAMS:
C_U104_C3         U104_BEGIN_AVDD 0  1n  TC=0,0 
X_U104_U19         NSLEEP U104_N15024630 U104_N15025090 NSLEEP_OK
+  COMPHYS_BASIC_GEN PARAMS: VDD=1 VSS=0 VTHRESH=0.5
E_U104_ABM11         U104_N14805995 0 VALUE { IF ( V(VM1) > 3.3, MIN ( V (VM1) ,
+  3.3 ) , 0)    }
V_U104_V1         U104_N15024630 0 1.5
E_U104_ABM12         U104_N15071328 0 VALUE { IF (V(OCP_SDWN)<0.5,
+  V(U104_VCP_IN) , 0 )    }
V_U104_V6         U104_N16584186 0 1
R_U104_R4         U104_N16550610 0  1k  
R_U104_R5         U104_N16585931 U104_BEGIN_AVDD  202k  
X_U104_U17         UVLO_N NSLEEP_OK U104_VM_OK1 AND2_BASIC_GEN PARAMS: VDD=1
+  VSS=0 VTHRESH=500E-3
G_U104_ABMI1         U104_N15071328 VCP VALUE {
+  MAX((V(VM1)-1.5)*0.01*V(NSLEEP_OK), 0)    }
X_U104_U15         DVDD U104_N14805995 d_d1 PARAMS:
V_U104_V4         U104_N16534469 U104_N16550524 20m
G_U104_ABMII3         U104_N14805995 DVDD VALUE { IF(V(U104_NSLEEP_OK_D)>0.5,
+  IF(V(U104_DVDD_CURRENT_LIMITED) <0.5, 160m, 30m), - 6.6m)    }
V_U104_V2         U104_N15025090 0 0.1
X_U104_U23         0 AVDD d_d1 PARAMS:
X_U104_U24         0 DVDD d_d1 PARAMS:
X_U104_U34         U104_BEGIN_AVDD UVLO_N U104_N16560772 U104_N16560585
+  AND3_BASIC_GEN PARAMS: VDD=1 VSS=0 VTHRESH=500E-3
G_U104_ABMII1         VM1 0 VALUE { IF(V(NSLEEP_OK)>0.5,6m,10u)    }
E_U104_ABM8         U104_VCP_IN 0 VALUE { if ( V(U104_VCP_EN) < 0.5 , V (VM1) ,
+  IF ( V(VM1) < 12 , (( V(VM1)*2 ) - 1.5 ) ,  (V(VM1) + 9.5 ) ) )     }
X_U104_U26         DVDD U104_N16545706 U104_N16559403 COMP_BASIC_GEN PARAMS:
+  VDD=1 VSS=0 VTHRESH=0.5
X_U104_U31         DVDD U104_N16559403 U104_N16559582 AND2_BASIC_GEN PARAMS:
+  VDD=1 VSS=0 VTHRESH=500E-3
X_U104_U14         VCP U104_N14801985 U104_N14801989 U104_N15033359
+  COMPHYS_BASIC_GEN PARAMS: VDD=1 VSS=0 VTHRESH=0.5
X_U104_U25         U104_N16559582 U104_N16546715 U104_DVDD_CURRENT_LIMITED
+  U104_N16548901 srlatchrhp_basic_gen PARAMS: VDD=1 VSS=0 VTHRESH=0.5
X_U104_U18         VCP U104_N15071328 d_d1 PARAMS:
C_U104_C4         U104_NSLEEP_OK_D 0  1n IC=0 TC=0,0 
X_S3    N16563849 0 NFAULT 0 DRV8701E_TRANS_S3 
X_U109         N16514501 N16514195 one_shot PARAMS:  T=622000  
C_C4         0 AVDD_H_D  1n  TC=0,0 
E_ABM2         N16563849 0 VALUE { IF(V(N16575758)>0.5, V(DVDD), 0)    }
X_U1_U21         U1_N16059024 U1_N16228139 U1_N16064445 AND2_BASIC_GEN PARAMS:
+  VDD=1 VSS=0 VTHRESH=500E-3
R_U1_R5         GL2_PRE U1_N16228707  5772.005772 TC=0,0 
X_U1_U24         U1_N16064189 U1_N16064273 U1_N16064445 U1_N16064625
+  U1_N16213259 OR4_BASIC_GEN PARAMS: VDD=1 VSS=0 VTHRESH=500E-3
C_U1_C5         0 U1_N16228707  1n  TC=0,0 
X_U1_U22         U1_N16228707 GL2_PRE d_d1 PARAMS:
E_U1_ABM12         U1_N16059376 0 VALUE { IF ( (V(LDRV_SUPPLY) - V(GL2) ) > 1 ,
+  1 , 0 )    }
X_U1_U23         U1_N16059376 U1_N16228707 U1_N16064625 AND2_BASIC_GEN PARAMS:
+  VDD=1 VSS=0 VTHRESH=500E-3
R_U1_R2         GH2_PRE U1_N16069989  5772.005772 TC=0,0 
C_U1_C2         0 U1_N16069989  1n  TC=0,0 
X_U1_U19         U1_N16058716 U1_N16069989 U1_N16064273 AND2_BASIC_GEN PARAMS:
+  VDD=1 VSS=0 VTHRESH=500E-3
E_U1_ABM9         U1_N16058670 0 VALUE { IF ( (V(VCP) - V(GH1) ) > 1 , 1 , 0 ) 
+    }
X_U1_U18         U1_N16069989 GH2_PRE d_d1 PARAMS:
R_U1_R3         GH1_PRE U1_N16205701  5772.005772 TC=0,0 
E_U1_ABM11         U1_N16059024 0 VALUE { IF ( (V(LDRV_SUPPLY) - V(GL1) ) > 1 ,
+  1 , 0 )    }
X_U1_U17         U1_N16058670 U1_N16205701 U1_N16064189 AND2_BASIC_GEN PARAMS:
+  VDD=1 VSS=0 VTHRESH=500E-3
C_U1_C3         0 U1_N16205701  1n  TC=0,0 
X_U1_U25         U1_N16213259 6P25 U1_N16213972 AND2_BASIC_GEN PARAMS: VDD=1
+  VSS=0 VTHRESH=500E-3
R_U1_R4         GL1_PRE U1_N16228139  5772.005772 TC=0,0 
C_U1_C1         0 PDF  1n  
X_U1_U16         U1_N16205701 GH1_PRE d_d1 PARAMS:
C_U1_C4         0 U1_N16228139  1n  TC=0,0 
R_U1_R1         U1_N16213972 PDF  20  
E_U1_ABM10         U1_N16058716 0 VALUE { IF ( (V(VCP) - V(GH2) ) > 1 , 1 , 0 )
+     }
X_U1_U20         U1_N16228139 GL1_PRE d_d1 PARAMS:
X_U1_D1         U1_N16213972 PDF d_d1 PARAMS: 
X_U122         DVDD NSLEEP_OK N16595640 AND2_BASIC_GEN PARAMS: VDD=1 VSS=0
+  VTHRESH=500E-3
X_U119         N16514954 POWER_APPLIED N16575758 AND2_BASIC_GEN PARAMS: VDD=1
+  VSS=0 VTHRESH=500E-3
X_U118         N16514349 VCP_DELAY one_shot PARAMS:  T=290000  
X_D1         AVDD_H_D N16615680 d_d1 PARAMS: 
X_U107_U5         U107_N14993108 PWM_OFF INV_BASIC_GEN PARAMS: VDD=1 VSS=0
+  VTHRESH=500E-3
X_U107_U655         U107_N14992217 U107_BLANK U107_N14994429 AND2_BASIC_GEN
+  PARAMS: VDD=1 VSS=0 VTHRESH=500E-3
V_U107_V9         SO U107_N15009193 50m
R_U107_R5         SP U107_N15008222  3k TC=0,0 
C_U107_C2         0 U107_N14992217  1n  TC=0,0 
X_U107_U654         GH1_PRE GH2_PRE U107_N14990083 OR2_BASIC_GEN PARAMS: VDD=1
+  VSS=0 VTHRESH=500E-3
R_U107_R6         SN U107_N15008234  3.157895k TC=0,0 
E_U107_ABM6         U107_N15000270 0 VALUE {  IF (  ( V(SP) - V(SN) ) > 1 , 1 ,
+  0)    }
R_U107_R7         U107_N15008234 U107_N15009193  60k TC=0,0 
X_U107_U656         U107_N15000248 U107_BLANK OCP_ISEN AND2_BASIC_GEN PARAMS:
+  VDD=1 VSS=0 VTHRESH=500E-3
X_U107_U15         U107_N15009167 U107_N15012173 d_d1 PARAMS:
V_U107_V7         U107_N15012173 0 4.5
R_U107_R2         U107_N14990083 U107_N14990021  2886 TC=0,0 
X_U107_U16         0 U107_N15009167 d_d1 PARAMS:
C_U107_C1         0 U107_N14990021  1n  TC=0,0 
I_U107_I1         U107_N15008416 SP DC 40u  
X_U107_U1         SO VREF U107_N14992287 COMP_BASIC_GEN PARAMS: VDD=1 VSS=0
+  VTHRESH=0.5
V_U107_V6         U107_N15008416 0 5
E_U107_ABM5         U107_BLANK 0 VALUE { if(V(U107_N14990021) > 0.5 , 1 , 0 )  
+   }
R_U107_R4         U107_N15000248 U107_N15000270  1 TC=0,0 
X_U107_U12         U107_N14990021 U107_N14990083 d_d1 PARAMS:
C_U107_C3         0 U107_N15000248  1n  TC=0,0 
I_U107_I2         U107_N15009167 U107_N15009193 DC 5m  
X_U107_U13         SP U107_N15008416 d_d1 PARAMS:
X_U107_U14         U107_N15009193 U107_N15009167 d_d1 PARAMS:
R_U107_R8         U107_N15010557 U107_N15009167  1 TC=0,0 
X_U107_U2         U107_N14994429 U107_N14993108 one_shot PARAMS:  T=25000  
E_U107_E1         U107_N15010557 0 U107_N15008222 U107_N15008234 10e6
R_U107_R3         U107_N14992217 U107_N14992287  1 TC=0,0 
X_U113         NSLEEP_OK N16514317 INV_BASIC_GEN PARAMS: VDD=1 VSS=0
+  VTHRESH=500E-3
X_U114         N16514349 N16514483 one_shot PARAMS:  T=250000  
E_ABM1         N16514265 0 VALUE { IF(V(VM1)> 3.6, IF(V(VM1) < 5.1, 1,0),0)    }
X_S2    PWM_OFF 0 SNSOUT 0 DRV8701E_TRANS_S2 
X_U125         AVDD_H_D N16621969 INV_BASIC_GEN PARAMS: VDD=1 VSS=0
+  VTHRESH=500E-3
R_R3         NSLEEP_OK N16533935  17.34k  
X_U115         OCP_SDWN N16514265 N16514195 N16514207 N16514191 OR4_BASIC_GEN
+  PARAMS: VDD=1 VSS=0 VTHRESH=500E-3
X_U116         NFAULT N16514349 INV_BASIC_GEN PARAMS: VDD=1 VSS=0
+  VTHRESH=500E-3
X_U121         DRV_EN NFAULT DRV_EN_AND_NFAULT AND2_BASIC_GEN PARAMS: VDD=1
+  VSS=0 VTHRESH=500E-3
C_C3         N16533935 0  1n  TC=0,0 
X_U106_M68         U106_N17823629 U106_N17823591 SH2 lmos25m PARAMS:
R_U106_R17         U106_N18042627 U106_N18042625  5  
X_U106_U902         U106_GH1_STRONG_PULLDOWN U106_N18407104 INV_BASIC_GEN
+  PARAMS: VDD=1 VSS=0 VTHRESH=500E-3
R_U106_R7         U106_GL2_PRE_DEAD U106_N17133670  360.674 TC=0,0 
X_U106_M83         U106_N17813376 U106_N17813143 SH1 lmos25m PARAMS:
X_U106_U855         GH1 N17551187 INV_BASIC_GEN PARAMS: VDD=1 VSS=0
+  VTHRESH=500E-3
X_U106_S104    U106_HIZ 0 SH2 0 DRIVER_U106_S104 
X_U106_U106         DRV_EN_AND_NFAULT U106_N17127201 U106_N15170251
+  AND2_BASIC_GEN PARAMS: VDD=1 VSS=0 VTHRESH=500E-3
C_U106_C9         U106_N18042627 0  1n  TC=0,0 
X_U106_M88         U106_N16563845 U106_N16563547 GL1 hmos12p5m PARAMS:
C_U106_C6         0 U106_N17133670  1n  TC=0,0 
X_U106_U836         U106_GLXX_ON U106_M41 U106_GXX_PULLDOWN_M4 AND2_BASIC_GEN
+  PARAMS: VDD=1 VSS=0 VTHRESH=500E-3
X_U106_U848         U106_N17384042 U106_N17384044 U106_GH1_IS_ACTIVE
+  COMP_BASIC_GEN PARAMS: VDD=1 VSS=0 VTHRESH=0.5
X_U106_U877         U106_GH1_IS_ACTIVE U106_GH1_IS_INACTIVE INV_BASIC_GEN
+  PARAMS: VDD=1 VSS=0 VTHRESH=500E-3
X_U106_U109         DRV_EN_AND_NFAULT U106_N15179489 U106_N15174244
+  AND2_BASIC_GEN PARAMS: VDD=1 VSS=0 VTHRESH=500E-3
X_U106_S87    U106_M3 0 LDRV_SUPPLY U106_N16564275 DRIVER_U106_S87 
D_U106_D3         SH1 GH1 D_D3 
X_U106_M91         U106_N17810872 U106_N17810813 0 lmos50m PARAMS:
X_U106_M63         U106_N16527029 U106_N16525867 GH2 hmos12p5m PARAMS:
E_U106_ABM5         U106_N17384042 0 VALUE { V(GH1)-V(SH1)    }
X_U106_M94         U106_N17813286 U106_N17813143 SH1 lmos100m PARAMS:
X_U106_U868         GH2_PRE U106_N17968731 U106_N18117809 AND2_BASIC_GEN
+  PARAMS: VDD=1 VSS=0 VTHRESH=500E-3
X_U106_M70         U106_N17823650 U106_N17823591 SH2 lmos50m PARAMS:
X_U106_M73         U106_N16535709 U106_N16534547 GH1 hmos12p5m PARAMS:
X_U106_M90         U106_N16563925 U106_N16563547 GL1 hmos25m PARAMS:
X_U106_S68    6P25 0 VCP U106_N16527137 DRIVER_U106_S68 
E_U106_ABM10         U106_N18744695 0 VALUE { IF(V(LDRV_SUPPLY)-V(GL1)>0.2, 1,
+  0)    }
X_U106_U896         U106_GL1_STRONG_PULLDOWN U106_N18400210 INV_BASIC_GEN
+  PARAMS: VDD=1 VSS=0 VTHRESH=500E-3
X_U106_S80    6P25 0 VCP U106_N16535817 DRIVER_U106_S80 
X_U106_U113         DRV_EN_AND_NFAULT NSLEEP_OK U106_N16968987 AND2_BASIC_GEN
+  PARAMS: VDD=1 VSS=0 VTHRESH=500E-3
X_U106_U865         GL2_PRE U106_N17881931 U106_N18101493 AND2_BASIC_GEN
+  PARAMS: VDD=1 VSS=0 VTHRESH=500E-3
X_U106_U652         U106_GL2_PRE_DEAD U106_N17133670 U106_N17133698
+  AND2_BASIC_GEN PARAMS: VDD=1 VSS=0 VTHRESH=500E-3
G_U106_ABM2I4         GH1 SH1 VALUE { IF(V(U106_GH1_STRONG_PULLDOWN)>0.5, 490m,
+  IF(V(U106_GH1_HOLD_LOW)>0.5, 12.5m, 0))    }
X_U106_U878         U106_GL1_OFF U106_GH1_IS_INACTIVE U106_GL1_DRIVE_SINK
+  AND2_BASIC_GEN PARAMS: VDD=1 VSS=0 VTHRESH=500E-3
X_U106_U661         NSLEEP_OK DRV_EN_AND_NFAULT U106_N17133698 U106_N15180874
+  AND3_BASIC_GEN PARAMS: VDD=1 VSS=0 VTHRESH=500E-3
X_U106_M95         U106_N17813302 U106_N17813143 SH1 lmos25m PARAMS:
X_U106_M98         U106_N17816060 U106_N17815948 0 lmos25m PARAMS:
X_U106_M92         U106_N16564275 U106_N16563547 GL1 hmos50m PARAMS:
X_U106_S105    U106_HIZ 0 VM1 SH2 DRIVER_U106_S105 
X_U106_U657         U106_N15165670 U106_OCPB GL1_PRE AND2_BASIC_GEN PARAMS:
+  VDD=1 VSS=0 VTHRESH=500E-3
X_U106_U837         U106_GLXX_ON U106_H31 U106_GXX_PULLDOWN_H3 AND2_BASIC_GEN
+  PARAMS: VDD=1 VSS=0 VTHRESH=500E-3
X_U106_M93         U106_N17810896 U106_N17810813 0 lmos100m PARAMS:
E_U106_ABM8         U106_N18004212 0 VALUE { IF(V(LDRV_SUPPLY)-V(GL1)>0.2, 1,
+  0)    }
X_U106_S91    6P25 0 LDRV_SUPPLY U106_N16564513 DRIVER_U106_S91 
X_U106_S61    U106_H3 0 VCP U106_N16526549 DRIVER_U106_S61 
X_U106_S97    U106_M3 0 LDRV_SUPPLY U106_N16531289 DRIVER_U106_S97 
X_U106_M12         U106_N16564513 U106_N16563547 GL1 highmos PARAMS:
X_U106_M72         U106_N17823674 U106_N17823591 SH2 lmos100m PARAMS:
X_U106_S77    U106_H3 0 VCP U106_N16535229 DRIVER_U106_S77 
X_U106_U659         U106_N15180874 U106_OCPB GL2_PRE AND2_BASIC_GEN PARAMS:
+  VDD=1 VSS=0 VTHRESH=500E-3
X_U106_M99         U106_N17815970 U106_N17815948 0 lmos100m PARAMS:
V_U106_U105_V5         U106_U105_N14829940 0 0.1
X_U106_U105_U3         IDRIVE U106_U105_N14829755 U106_H31 COMP_BASIC_GEN
+  PARAMS: VDD=1 VSS=0 VTHRESH=0.5
V_U106_U105_V3         U106_U105_N14829755 0 2.5
X_U106_U105_U4         IDRIVE U106_U105_N14829797 U106_H4 COMP_BASIC_GEN
+  PARAMS: VDD=1 VSS=0 VTHRESH=0.5
X_U106_U105_U2         IDRIVE U106_U105_N14829577 H2 COMP_BASIC_GEN PARAMS:
+  VDD=1 VSS=0 VTHRESH=0.5
V_U106_U105_V1         U106_U105_N14829220 0 4.9
V_U106_U105_V2         U106_U105_N14829577 0 3.7
V_U106_U105_V4         U106_U105_N14829797 0 1.3
X_U106_U105_U1         IDRIVE U106_U105_N14829220 H1 COMP_BASIC_GEN PARAMS:
+  VDD=1 VSS=0 VTHRESH=0.5
R_U106_U105_R1         IDRIVE AVDD  190K TC=0,0 
R_U106_U105_R2         0 IDRIVE  310K TC=0,0 
X_U106_U105_U5         IDRIVE U106_U105_N14829940 U106_H5 COMP_BASIC_GEN
+  PARAMS: VDD=1 VSS=0 VTHRESH=0.5
X_U106_S106    U106_GH2_IS_ACTIVE 0 U106_N17133670 0 DRIVER_U106_S106 
V_U106_V4         U106_N17343127 0 1.5
X_U106_U664         DRV_EN_AND_NFAULT NSLEEP_OK U106_N17126139 U106_N15165670
+  AND3_BASIC_GEN PARAMS: VDD=1 VSS=0 VTHRESH=500E-3
X_U106_M96         U106_N17813323 U106_N17813143 SH1 lmos50m PARAMS:
X_U106_U15         GH1_PRE U106_N17133707 INV_BASIC_GEN PARAMS: VDD=1 VSS=0
+  VTHRESH=500E-3
X_U106_M74         U106_N16531419 U106_N16530561 GL2 hmos12p5m PARAMS:
R_U106_R18         U106_N17968731 U106_N17968729  5  
E_U106_ABM4         U106_N17343125 0 VALUE { V(GL1)    }
X_U106_U880         U106_NFAULT_N U106_N18132991 U106_GH1_STRONG_PULLDOWN
+  OR2_BASIC_GEN PARAMS: VDD=1 VSS=0 VTHRESH=500E-3
X_U106_U873         U106_GL1_IS_ACTIVE U106_GL1_IS_INACTIVE INV_BASIC_GEN
+  PARAMS: VDD=1 VSS=0 VTHRESH=500E-3
X_U106_S88    U106_H3 0 LDRV_SUPPLY U106_N16563925 DRIVER_U106_S88 
X_U106_M100         U106_N17815986 U106_N17815948 0 lmos25m PARAMS:
X_U106_U11         U106_GL1_PRE_DEAD U106_GH1_PRE_DEAD INV_BASIC_GEN PARAMS:
+  VDD=1 VSS=0 VTHRESH=500E-3
X_U106_U842         U106_SWITCHING_STARTED_N UVLO_N U106_HIZ AND2_BASIC_GEN
+  PARAMS: VDD=1 VSS=0 VTHRESH=500E-3
V_U106_V3         U106_N17312299 0 1.5
C_U106_C10         U106_N17968731 0  1n  TC=0,0 
X_U106_U847         U106_N17343125 U106_N17343127 U106_GL1_IS_ACTIVE
+  COMP_BASIC_GEN PARAMS: VDD=1 VSS=0 VTHRESH=0.5
X_U106_M76         U106_N16530797 U106_N16530561 GL2 hmos50m PARAMS:
X_U106_U869         U106_GH2_IS_ACTIVE U106_GH2_IS_INACTIVE INV_BASIC_GEN
+  PARAMS: VDD=1 VSS=0 VTHRESH=500E-3
X_U106_U872         GL1_PRE U106_N18004214 U106_N18132991 AND2_BASIC_GEN
+  PARAMS: VDD=1 VSS=0 VTHRESH=500E-3
X_U106_S62    U106_M1 0 VCP U106_N16527029 DRIVER_U106_S62 
X_U106_S101    6P25 0 LDRV_SUPPLY U106_N16531527 DRIVER_U106_S101 
X_U106_U14         U106_N17133774 U106_GL2_PRE_DEAD INV_BASIC_GEN PARAMS: VDD=1
+  VSS=0 VTHRESH=500E-3
R_U106_R5         U106_GH1_PRE_DEAD U106_N17126036  360.674 TC=0,0 
X_U106_U20_U669         GL1_PRE U106_U20_N16204819 INV_BASIC_GEN PARAMS: VDD=1
+  VSS=0 VTHRESH=500E-3
R_U106_U20_R6         U106_U20_N16205125 U106_U20_N16205097  28.86 TC=0,0 
X_U106_U20_U847         U106_U20_N16476022 U106_U20_NEG_EDGE U106_U20_N16475838
+  AND2_BASIC_GEN PARAMS: VDD=1 VSS=0 VTHRESH=500E-3
X_U106_U20_U670         GL1_PRE U106_U20_N16204791 U106_U20_N16204767
+  AND2_BASIC_GEN PARAMS: VDD=1 VSS=0 VTHRESH=500E-3
C_U106_U20_C4         0 U106_U20_N16205097  1n  TC=0,0 
E_U106_U20_ABM4         U106_U20_N16476022 0 VALUE {
+  IF(V(U106_GL1_PRE_DEAD)>0.5,0,1)    }
X_U106_U20_U671         GL2_PRE U106_U20_N16205125 INV_BASIC_GEN PARAMS: VDD=1
+  VSS=0 VTHRESH=500E-3
X_U106_U20_U835         U106_U20_N16464989 U106_U20_N16474567
+  U106_U20_N16475838 U106_U20_N16475892 U106_U20_N16478818 OR4_BASIC_GEN PARAMS:
+  VDD=1 VSS=0 VTHRESH=500E-3
X_U106_U20_U672         GL2_PRE U106_U20_N16205097 U106_U20_N16205073
+  AND2_BASIC_GEN PARAMS: VDD=1 VSS=0 VTHRESH=500E-3
X_U106_U20_U844         U106_U20_N16464640 U106_U20_NEG_EDGE U106_U20_N16464989
+  AND2_BASIC_GEN PARAMS: VDD=1 VSS=0 VTHRESH=500E-3
X_U106_U20_U845         U106_U20_N16474649 U106_U20_NEG_EDGE U106_U20_N16474567
+  AND2_BASIC_GEN PARAMS: VDD=1 VSS=0 VTHRESH=500E-3
E_U106_U20_ABM1         U106_U20_N16464640 0 VALUE {
+  IF(V(U106_GL2_PRE_DEAD)>0.5,0,1)    }
E_U106_U20_ABM2         U106_U20_N16474649 0 VALUE {
+  IF(V(U106_GH2_PRE_DEAD)>0.5,0,1)    }
R_U106_U20_R4         U106_U20_N16204530 U106_U20_N16204502  28.86 TC=0,0 
R_U106_U20_R3         U106_U20_N16204059 U106_U20_N16204023  28.86 TC=0,0 
X_U106_U20_U829         U106_U20_N16426018 U106_2P5U_SIGNAL one_shot PARAMS: 
+  T=2500  
C_U106_U20_C1         0 U106_U20_N16204023  1n  TC=0,0 
C_U106_U20_C2         0 U106_U20_N16204502  1n  TC=0,0 
X_U106_U20_U842         GL2_PRE GH2_PRE U106_U20_NEG_EDGE NOR2_BASIC_GEN
+  PARAMS: VDD=1 VSS=0 VTHRESH=500E-3
X_U106_U20_U831         U106_U20_N16478818 U106_STRONG_PULLDOWN one_shot
+  PARAMS:  T=2750  
R_U106_U20_R5         U106_U20_N16204819 U106_U20_N16204791  28.86 TC=0,0 
X_U106_U20_U665         GH1_PRE U106_U20_N16204059 INV_BASIC_GEN PARAMS: VDD=1
+  VSS=0 VTHRESH=500E-3
X_U106_U20_U667         GH2_PRE U106_U20_N16204530 INV_BASIC_GEN PARAMS: VDD=1
+  VSS=0 VTHRESH=500E-3
C_U106_U20_C3         0 U106_U20_N16204791  1n  TC=0,0 
X_U106_U20_U846         U106_U20_N16475974 U106_U20_NEG_EDGE U106_U20_N16475892
+  AND2_BASIC_GEN PARAMS: VDD=1 VSS=0 VTHRESH=500E-3
X_U106_U20_U666         GH1_PRE U106_U20_N16204023 U106_U20_N16203999
+  AND2_BASIC_GEN PARAMS: VDD=1 VSS=0 VTHRESH=500E-3
X_U106_U20_U668         GH2_PRE U106_U20_N16204502 U106_U20_N16204478
+  AND2_BASIC_GEN PARAMS: VDD=1 VSS=0 VTHRESH=500E-3
X_U106_U20_U830         U106_U20_N16203999 U106_U20_N16204478
+  U106_U20_N16204767 U106_U20_N16205073 U106_U20_N16426018 OR4_BASIC_GEN PARAMS:
+  VDD=1 VSS=0 VTHRESH=500E-3
E_U106_U20_ABM3         U106_U20_N16475974 0 VALUE {
+  IF(V(U106_GH1_PRE_DEAD)>0.5,0,1)    }
X_U106_S78    U106_M1 0 VCP U106_N16535709 DRIVER_U106_S78 
X_U106_M97         U106_N17813347 U106_N17813143 SH1 lmos100m PARAMS:
X_U106_U114         H1 U106_H31 U106_M31 XOR2_BASIC_GEN PARAMS: VDD=1 VSS=0
+  VTHRESH=500E-3
X_U106_U850         NFAULT U106_NFAULT_N INV_BASIC_GEN PARAMS: VDD=1 VSS=0
+  VTHRESH=500E-3
R_U106_R15         U106_N16987668 U106_SWITCHING_STARTED_N  723  
X_U106_U846         U106_N17312297 U106_N17312299 U106_GL2_IS_ACTIVE
+  COMP_BASIC_GEN PARAMS: VDD=1 VSS=0 VTHRESH=0.5
X_U106_M78         U106_N16530859 U106_N16530561 GL2 hmos12p5m PARAMS:
X_U106_U874         U106_GH1_OFF U106_GL1_IS_INACTIVE U106_GH1_DRIVE_SINK
+  AND2_BASIC_GEN PARAMS: VDD=1 VSS=0 VTHRESH=500E-3
X_U106_M65         U106_N16526407 U106_N16525867 GH2 hmos50m PARAMS:
X_U106_U828         U106_2P5U_SIGNAL U106_M31 U106_M3 AND2_BASIC_GEN PARAMS:
+  VDD=1 VSS=0 VTHRESH=500E-3
C_U106_C4         0 U106_N17126036  1n  TC=0,0 
X_U106_M101         U106_N17816007 U106_N17815948 0 lmos50m PARAMS:
X_U106_M75         U106_N16535087 U106_N16534547 GH1 hmos50m PARAMS:
E_U106_ABM3         U106_N17312297 0 VALUE { V(GL2)-V(SP)    }
X_U106_U899         U106_N18405757 U106_GH2_IS_ACTIVE U106_GL2_OFF
+  U106_GL2_HOLD_LOW AND3_BASIC_GEN PARAMS: VDD=1 VSS=0 VTHRESH=500E-3
X_U106_M13         U106_N17810946 U106_N17810813 0 lowmos PARAMS:
X_U106_U110         REVERSE PWM_OFF U106_N17133769 AND2_BASIC_GEN PARAMS: VDD=1
+  VSS=0 VTHRESH=500E-3
X_U106_S64    U106_GXX_PULLDOWN_M1 0 GL1 U106_N17810925 DRIVER_U106_S64 
X_U106_U870         U106_GL2_OFF U106_GH2_IS_INACTIVE U106_GL2_DRIVE_SINK
+  AND2_BASIC_GEN PARAMS: VDD=1 VSS=0 VTHRESH=500E-3
X_U106_U857         GH2 U106_N17612829 INV_BASIC_GEN PARAMS: VDD=1 VSS=0
+  VTHRESH=500E-3
X_U106_S89    U106_M1 0 LDRV_SUPPLY U106_N16564405 DRIVER_U106_S89 
E_U106_E7         U106_N16525867 GH2 VALUE { if ( V(U106_GH2_ON, 0) > 0.5 , 5.1
+  , 0 ) }
X_U106_S98    U106_H3 0 LDRV_SUPPLY U106_N16530939 DRIVER_U106_S98 
X_U106_U903         U106_N18744695 U106_N18748031 U106_GLXX_ON OR2_BASIC_GEN
+  PARAMS: VDD=1 VSS=0 VTHRESH=500E-3
X_U106_S54    U106_GXX_PULLDOWN_M1 0 GH2 U106_N17823706 DRIVER_U106_S54 
X_U106_S108    U106_GL1_IS_ACTIVE 0 U106_N17126036 0 DRIVER_U106_S108 
X_U106_M80         U106_N16530939 U106_N16530561 GL2 hmos25m PARAMS:
X_U106_U852         GH1_PRE NFAULT U106_GH1_ON AND2_BASIC_GEN PARAMS: VDD=1
+  VSS=0 VTHRESH=500E-3
X_U106_U900         U106_GL2_STRONG_PULLDOWN U106_N18405757 INV_BASIC_GEN
+  PARAMS: VDD=1 VSS=0 VTHRESH=500E-3
X_U106_M8         U106_N17823727 U106_N17823591 SH2 lowmos PARAMS:
E_U106_E11         U106_N16534547 GH1 VALUE { if ( V(U106_GH1_ON, 0) > 0.5 ,
+  5.1 , 0 ) }
X_U106_S63    U106_M2 0 VCP U106_N16526469 DRIVER_U106_S63 
X_U106_M7         U106_N16527137 U106_N16525867 GH2 highmos PARAMS:
X_U106_S103    U106_HIZ 0 SH1 0 DRIVER_U106_S103 
X_U106_U653         U106_N17133707 U106_N17133769 U106_N17133774 AND2_BASIC_GEN
+  PARAMS: VDD=1 VSS=0 VTHRESH=500E-3
X_U106_S79    U106_M2 0 VCP U106_N16535149 DRIVER_U106_S79 
X_U106_M9         U106_N16535817 U106_N16534547 GH1 highmos PARAMS:
X_U106_S81    U106_GXX_PULLDOWN_M2 0 GL1 U106_N17810851 DRIVER_U106_S81 
X_U106_U650         U106_GH1_PRE_DEAD U106_N17126036 U106_N17127201
+  AND2_BASIC_GEN PARAMS: VDD=1 VSS=0 VTHRESH=500E-3
X_U106_U831         U106_M1 U106_M2 U106_M3 U106_M4 U106_H3 6P25 NOR5_BASIC_GEN
+  PARAMS: VDD=1 VSS=0 VTHRESH=500E-3
X_U106_U860         GL2_PRE NFAULT U106_GL2_ON AND2_BASIC_GEN PARAMS: VDD=1
+  VSS=0 VTHRESH=500E-3
X_U106_U853         U106_GL1_PRE_DEAD U106_NFAULT_N U106_GH1_OFF OR2_BASIC_GEN
+  PARAMS: VDD=1 VSS=0 VTHRESH=500E-3
X_U106_M82         U106_N16531289 U106_N16530561 GL2 hmos50m PARAMS:
X_U106_U827         U106_2P5U_SIGNAL U106_M21 U106_M2 AND2_BASIC_GEN PARAMS:
+  VDD=1 VSS=0 VTHRESH=500E-3
X_U106_S109    U106_GH1_IS_ACTIVE 0 U106_N17126128 0 DRIVER_U106_S109 
X_U106_U829         U106_2P5U_SIGNAL U106_M41 U106_M4 AND2_BASIC_GEN PARAMS:
+  VDD=1 VSS=0 VTHRESH=500E-3
X_U106_M102         U106_N17816031 U106_N17815948 0 lmos100m PARAMS:
X_U106_U832         U106_GLXX_ON U106_M21 U106_GXX_PULLDOWN_M2 AND2_BASIC_GEN
+  PARAMS: VDD=1 VSS=0 VTHRESH=500E-3
X_U106_S55    U106_GXX_PULLDOWN_M2 0 GH2 U106_N17823629 DRIVER_U106_S55 
X_U106_U826         U106_2P5U_SIGNAL U106_M11 U106_M1 AND2_BASIC_GEN PARAMS:
+  VDD=1 VSS=0 VTHRESH=500E-3
E_U106_E13         U106_N16563547 GL1 VALUE { if ( V(U106_GL1_ON, 0) > 0.5 ,
+  5.1 , 0 ) }
X_U106_S102    U106_HIZ 0 VM1 SH1 DRIVER_U106_S102 
X_U106_M71         U106_N16526899 U106_N16525867 GH2 hmos50m PARAMS:
X_U106_M81         U106_N16535579 U106_N16534547 GH1 hmos50m PARAMS:
X_U106_S90    U106_M2 0 LDRV_SUPPLY U106_N16563845 DRIVER_U106_S90 
X_U106_M10         U106_N16531527 U106_N16530561 GL2 highmos PARAMS:
X_U106_U663         U106_N15170251 NSLEEP_OK U106_OCPB GH1_PRE AND3_BASIC_GEN
+  PARAMS: VDD=1 VSS=0 VTHRESH=500E-3
X_U106_S82    U106_GXX_PULLDOWN_H3 0 GL1 U106_N17810872 DRIVER_U106_S82 
X_U106_S99    U106_M1 0 LDRV_SUPPLY U106_N16531419 DRIVER_U106_S99 
X_U106_S65    U106_GXX_PULLDOWN_M1 0 GH1 U106_N17813376 DRIVER_U106_S65 
X_U106_S56    U106_GXX_PULLDOWN_H3 0 GH2 U106_N17823650 DRIVER_U106_S56 
X_U106_U112         H1 U106_H4 U106_M21 XOR2_BASIC_GEN PARAMS: VDD=1 VSS=0
+  VTHRESH=500E-3
G_U106_ABM2I5         GL1 0 VALUE { IF(V(U106_GL1_STRONG_PULLDOWN)>0.5, 690m,
+  IF(V(U106_GL1_HOLD_LOW)>0.5, 12.5m, 0))    }
X_U106_U108         FORWARD PWM_OFF U106_N17126157 AND2_BASIC_GEN PARAMS: VDD=1
+  VSS=0 VTHRESH=500E-3
X_U106_M11         U106_N17813397 U106_N17813143 SH1 lowmos PARAMS:
X_U106_U830         U106_2P5U_SIGNAL U106_H31 U106_H3 AND2_BASIC_GEN PARAMS:
+  VDD=1 VSS=0 VTHRESH=500E-3
X_U106_U834         U106_GLXX_ON U106_M31 U106_GXX_PULLDOWN_M3 AND2_BASIC_GEN
+  PARAMS: VDD=1 VSS=0 VTHRESH=500E-3
V_U106_V2         U106_N17254542 0 1.5
X_U106_S83    U106_GXX_PULLDOWN_M3 0 GL1 U106_N17810896 DRIVER_U106_S83 
X_U106_U662         U106_N15174244 NSLEEP_OK U106_OCPB GH2_PRE AND3_BASIC_GEN
+  PARAMS: VDD=1 VSS=0 VTHRESH=500E-3
X_U106_S57    U106_GXX_PULLDOWN_M3 0 GH2 U106_N17823674 DRIVER_U106_S57 
X_U106_U858         GL1_PRE NFAULT U106_GL1_ON AND2_BASIC_GEN PARAMS: VDD=1
+  VSS=0 VTHRESH=500E-3
E_U106_ABM6         U106_N17880892 0 VALUE { IF(V(LDRV_SUPPLY)-V(GL2)>0.2, 1,
+  0)    }
E_U106_E8         U106_N17823591 SH2 VALUE { if ( V(U106_GH2_DRIVE_SINK, 0) >
+  0.5 , 5.1 , 0 ) }
E_U106_E9         U106_N16530561 GL2 VALUE { if ( V(U106_GL2_ON, 0) > 0.5 , 5.1
+  , 0 ) }
X_U106_S107    U106_N17610866 0 U106_N17133596 0 DRIVER_U106_S107 
X_U106_M67         U106_N16526469 U106_N16525867 GH2 hmos12p5m PARAMS:
X_U106_S66    U106_GXX_PULLDOWN_M1 0 GL2 U106_N17816060 DRIVER_U106_S66 
E_U106_ABM9         U106_N18042625 0 VALUE { IF(V(VCP)-V(GH1)>0.5, 1, 0)    }
R_U106_R19         U106_N17881931 U106_N17880892  5  
X_U106_S70    U106_GXX_PULLDOWN_M2 0 GH1 U106_N17813302 DRIVER_U106_S70 
X_U106_U16         GH1_PRE U106_N17139096 INV_BASIC_GEN PARAMS: VDD=1 VSS=0
+  VTHRESH=500E-3
X_U106_U845         U106_N17254531 U106_N17254542 U106_GH2_IS_ACTIVE
+  COMP_BASIC_GEN PARAMS: VDD=1 VSS=0 VTHRESH=0.5
E_U106_E12         U106_N17813143 SH1 VALUE { if ( V(U106_GH1_DRIVE_SINK, 0) >
+  0.5 , 5.1 , 0 ) }
X_U106_M77         U106_N16535149 U106_N16534547 GH1 hmos12p5m PARAMS:
X_U106_S100    U106_M2 0 LDRV_SUPPLY U106_N16530859 DRIVER_U106_S100 
X_U106_S84    U106_GXX_PULLDOWN_M4 0 GL1 U106_N17810835 DRIVER_U106_S84 
X_U106_U10         U106_N17126157 U106_GL1_PRE_DEAD INV_BASIC_GEN PARAMS: VDD=1
+  VSS=0 VTHRESH=500E-3
R_U106_R11         SH2 GH2  200K TC=0,0 
X_U106_U111         H1 U106_H5 U106_M11 XOR2_BASIC_GEN PARAMS: VDD=1 VSS=0
+  VTHRESH=500E-3
C_U106_C11         U106_N17881931 0  1n  TC=0,0 
R_U106_R16         U106_N18004214 U106_N18004212  5  
X_U106_S58    U106_GXX_PULLDOWN_M4 0 GH2 U106_N17823613 DRIVER_U106_S58 
E_U106_ABM2         U106_N17254531 0 VALUE { V(GH2)-V(SH2)    }
R_U106_R12         SH1 GH1  200K TC=0,0 
X_U106_S71    U106_GXX_PULLDOWN_H3 0 GH1 U106_N17813323 DRIVER_U106_S71 
X_U106_M14         U106_N17816081 U106_N17815948 0 lowmos PARAMS:
X_U106_S69    U106_GXX_PULLDOWN_M2 0 GL2 U106_N17815986 DRIVER_U106_S69 
X_U106_U882         U106_NFAULT_N U106_N18101493 U106_GH2_STRONG_PULLDOWN
+  OR2_BASIC_GEN PARAMS: VDD=1 VSS=0 VTHRESH=500E-3
X_U106_U863         U106_GH2_OFF U106_GL2_IS_INACTIVE U106_GH2_DRIVE_SINK
+  AND2_BASIC_GEN PARAMS: VDD=1 VSS=0 VTHRESH=500E-3
X_U106_S85    6P25 0 GL1 U106_N17810946 DRIVER_U106_S85 
R_U106_R4         U106_GL1_PRE_DEAD U106_N17126128  360.674 TC=0,0 
X_U106_U859         U106_GH2_PRE_DEAD U106_NFAULT_N U106_GL2_OFF OR2_BASIC_GEN
+  PARAMS: VDD=1 VSS=0 VTHRESH=500E-3
E_U106_E14         U106_N17810813 0 VALUE { if ( V(U106_GL1_DRIVE_SINK, 0) >
+  0.5 , 5.14 , 0 ) }
X_U106_S67    6P25 0 GH2 U106_N17823727 DRIVER_U106_S67 
X_U106_U876         GH1_PRE U106_N18042627 U106_N18086864 AND2_BASIC_GEN
+  PARAMS: VDD=1 VSS=0 VTHRESH=500E-3
R_U106_R6         U106_GH2_PRE_DEAD U106_N17133596  360.674 TC=0,0 
X_U106_U12         OCP_SDWN U106_OCPB INV_BASIC_GEN PARAMS: VDD=1 VSS=0
+  VTHRESH=500E-3
R_U106_R14         0 GL1  150k TC=0,0 
X_U106_U115         REVERSE PWM_OFF U106_N17139145 AND2_BASIC_GEN PARAMS: VDD=1
+  VSS=0 VTHRESH=500E-3
C_U106_C3         0 U106_N17126128  1n  TC=0,0 
E_U106_ABM1         LDRV_SUPPLY 0 VALUE { MIN ( (V(VM1) - 1.5) , 9.5 )    }