* INA280A2
*****************************************************************************
* (C) Copyright 2019 Texas Instruments Incorporated. All rights reserved.   
*****************************************************************************
** This model is designed as an aid for customers of Texas Instruments.
** TI and its licensors and suppliers make no warranties, either expressed
** or implied, with respect to this model, including the warranties of
** merchantability or fitness for a particular purpose.  The model is
** provided solely on an "as is" basis.  The entire risk as to its quality
** and performance is with the customer
*****************************************************************************
*
* This model is subject to change without notice. Texas Instruments
* Incorporated is not responsible for updating this model.
*
*****************************************************************************
*
* Released by: Texas Instruments Inc.
* Part: INA280A2
* Date: 2021-04-12
* Model Type:  All-in-One
* Simulator: Cadence PSpice
* Simulator Version: 16.6
* Datasheet: SBOSA19 - October 2020
*
* Model Version: A
*
*****************************************************************************	
* MACRO-MODEL SIMULATED PARAMETERS:
*****************************************************************************
* AC PARAMETERS (Typical)
**********************
* CLOSED-LOOP OUTPUT IMPEDANCE VS. FREQUENCY (Zout vs. Freq.)
* CLOSED-LOOP GAIN VS. FREQUENCY  WITH RL, CL EFFECTS (Acl vs. Freq.)
* COMMON-MODE REJECTION RATIO VS. FREQUENCY (CMRR vs. Freq.)
* POWER SUPPLY REJECTION RATIO VS. FREQUENCY (PSRR vs. Freq.)
* INPUT VOLTAGE NOISE DENSITY VS. FREQUENCY (en vs. Freq.)
**********************
* DC PARAMETERS (Typical)
**********************
* INPUT COMMON-MODE VOLTAGE RANGE (Vcm)
* MINIMUM COMMON-MODE VOLTAGE VS. SUPPLY
* GAIN ERROR (Eg)
* INPUT BIAS CURRENT VS. INPUT COMMON-MODE VOLTAGE (Ib vs. Vcm)
* INPUT BIAS CURRENT VS. SENSE VOLTAGE (Ib vs. Vsense)
* INPUT OFFSET VOLTAGE VS. TEMPERATURE (Vos vs. Temp)
* OUTPUT VOLTAGE SWING vs. OUTPUT CURRENT (Vout vs. Iout)
* SHORT-CIRCUIT OUTPUT CURRENT (Isc)
* QUIESCENT CURRENT (Iq)
**********************
* TRANSIENT PARAMETERS
**********************
* SLEW RATE (SR)
* OVERLOAD RECOVERY TIME (tor)
******************************************************
.SUBCKT INA280A2 IN+ IN- VS GND OUT
******************************************************
.MODEL R_NOISELESS RES (T_ABS=-273.15)
C_C10         GND N1506959  1E-15   
C_C11         N1507661 GND  1E-15   
C_C12         GND N1508307  1E-15   
C_C13         N1508387 GND  1E-15   
C_C14         GND N1511273  1E-15   
C_C15         N1511347 GND  1E-15   
C_C16         GND N1511677  1E-15   
C_C28         GND VIMON  30E-9   
C_C29         GND VOUT_S  1E-9   
C_C33         VS_B 0  1E-15   
C_C35         N1506413 GND  1E-15   
C_C36         GND N1509275  0.01N   
C_C7         N1505853 GND  1E-15   
C_C8         GND N1509847  1E-15   
C_C9         GND N1510863  1E-15   
C_CC         CLAMP GND  5.9E-9   
E_E24         N1507181 N1511333 CMR GND -0.5
E_E25         N1506663 N1505573 CMR GND 0.5
E_E27         N1506669 N1506663 PSR GND 0.5
E_E28         N1507219 N1507181 PSR GND -0.5
E_E3         N1509041 GND OUT GND 1
G_G12         VSENSE GND CLAMP GND -1E-3
G_G15         CLAW_CLAMP GND N1510117 GND -1E-3
G_G16         CL_CLAMP GND CLAW_CLAMP GND -1E-3
G_G36         N1507297 0 VS 0 -1
G_G61         N1508961 GND GND IN- -1
G_G62         VICM GND IN+ N1508961 -0.5
G_G66         ACL GND CL_CLAMP GND -1
G_G8         VS_CLP GND N1509847 GND -1E-3
G_G9         GND_CLP GND N1510863 GND -1E-3
I_I_Q         VS GND DC 500E-6  
R_R107         N1507297 0 R_NOISELESS 1
R_R110         N1507297 VS_B R_NOISELESS 1E-3
R_R147         N1508961 GND R_NOISELESS 1
R_R148         VICM GND R_NOISELESS 1
R_R153         GND VCM_MIN R_NOISELESS 1E9
R_R154         VCM_MAX GND R_NOISELESS 1E9
R_R155         GND N1506979 R_NOISELESS 1
R_R156         N1506413 N1506979 R_NOISELESS 1E-3
R_R157         GND ACL R_NOISELESS 1
R_R158         N1511333 N1510061  6.6K TC=0,0 
R_R159         VIMON N1509275  100 TC=0,0 
R_R27         GND N1505815 R_NOISELESS 1
R_R28         N1505853 N1505815 R_NOISELESS 1E-3
R_R29         N1509789 VS_B R_NOISELESS 1E3
R_R30         N1509847 N1509789 R_NOISELESS 1E-3
R_R31         VS_CLP GND R_NOISELESS 1E3
R_R32         N1510791 GND R_NOISELESS 1E3
R_R33         N1510863 N1510791 R_NOISELESS 1E-3
R_R34         GND_CLP GND R_NOISELESS 1E3
R_R35         GND VS_CLP R_NOISELESS 1E9
R_R36         N1506887 GND R_NOISELESS 1
R_R37         N1506959 N1506887 R_NOISELESS 1E-3
R_R38         N1507661 N1507679 R_NOISELESS 1E-3
R_R39         GND N1507679 R_NOISELESS 1
R_R40         GND GND_CLP R_NOISELESS 1E9
R_R41         GND N1510663 R_NOISELESS 1E9
R_R42         N1508281 GND R_NOISELESS 1
R_R43         N1508307 N1508281 R_NOISELESS 1E-3
R_R44         N1508387 N1508419 R_NOISELESS 1E-3
R_R45         GND N1508419 R_NOISELESS 1
R_R46         GND N1509765 R_NOISELESS 1E9
R_R49         GND N1511563 R_NOISELESS 1E9
R_R50         N1511223 GND R_NOISELESS 1
R_R51         N1511273 N1511223 R_NOISELESS 1E-3
R_R52         N1511347 N1505603 R_NOISELESS 1E-3
R_R53         GND N1505603 R_NOISELESS 1
R_R54         GND N1511509 R_NOISELESS 1E9
R_R55         N1511677 VSENSE R_NOISELESS 1E-3
R_R60         GND AOL_1 R_NOISELESS 1E6
R_R61         GND CLAMP R_NOISELESS 1E6
R_R62         GND VSENSE R_NOISELESS 1E3
R_R65         GND CLAW_CLAMP R_NOISELESS 1E3
R_R66         GND CL_CLAMP R_NOISELESS 1E3
R_R81         GND N1508067 R_NOISELESS 1E9
R_R82         VIMON N1508067 R_NOISELESS 100
R_R83         GND N1509041 R_NOISELESS 1E9
R_R84         VOUT_S N1509041 R_NOISELESS 100
R_R_EGN         N1511111 ACL R_NOISELESS 125
R_R_EGP         N1510681 GND R_NOISELESS 125
R_R_FN         N1507445 N1511111 R_NOISELESS 50K
R_R_FP         N1506719 N1510681 R_NOISELESS 50K
R_R_IN         N1506413 N1507445 R_NOISELESS 1E3
R_R_INN         N1511333 IN- R_NOISELESS 1E-6
R_R_INP         N1510061 IN+ R_NOISELESS 1E-6
R_R_IP         N1505853 N1506719 R_NOISELESS 1E3
V_VCM_MAX         VCM_MAX GND 122
V_V_GRN         N1511509 GND -28.6
V_V_GRP         N1511563 GND 25.9
V_V_ISCN         N1509765 GND -22
V_V_ISCP         N1510663 GND 13
X_AOL_1         N1506719 N1507445 GND AOL_1 AOL_1 
X_AOL_2         AOL_1 GND GND CLAMP AOL_2_INA280A2 PARAMS:  GAIN=1E-2 IPOS=1.18E-2
+  INEG=-1.18E-2
X_CLAWN         GND N1509275 GND N1510791 CLAWN_INA280A2 
X_CLAWP         N1509275 GND N1509789 VS_B CLAWP_INA280A2 
X_CLAW_AMP         VS_CLP GND_CLP VOUT_S GND N1506887 N1507679 CLAMP_AMP_LO_INA280A2 
X_CLAW_SRC         N1506959 N1507661 CLAW_CLAMP GND CLAW_SRC_INA280A2 PARAMS:  GAIN=1
+  IPOS=5.18E-2 INEG=-5.72E-2
X_CL_AMP         N1510663 N1509765 VIMON GND N1508281 N1508419 CLAMP_AMP_LO_INA280A2 
X_CL_SRC         N1508307 N1508387 CL_CLAMP GND CL_SRC_INA280A2 PARAMS:  GAIN=1
+  IPOS=1.04E-1 INEG=-1.14E-1
X_DC_REJ_SUB_CMR         VICM GND N1509415 GND DC_REJ_SUB_INA280A2 PARAMS:  DC_REJ=140
+  R=1
X_GR_AMP         N1511563 N1511509 N1511677 GND N1511223 N1505603 CLAMP_AMP_HI_INA280A2 
X_GR_SRC         N1511273 N1511347 CLAMP GND GR_SRC_INA280A2 PARAMS:  GAIN=1
+  IPOS=2.36E-2 INEG=-2.36E-2
X_H3    OUT N1510677 N1508067 GND 08_COMPLETE_A2_H3_INA280A2 
X_IBN         N1511333 GND VICM IBN_INA280A2 
X_IBP         N1510061 GND VICM IBP_INA280A2 
X_PZ1_30         N1957301 GND N1957309 GND GND PZ1_INA280A2 PARAMS:  GAIN=1 FP=25K
+  FZ=120K R=1E4
X_PZ1_31         N1957309 GND N1957315 GND GND PZ1_INA280A2 PARAMS:  GAIN=1 FP=30K
+  FZ=250K R=10E4
X_PZ1_32         N1957315 GND N1957321 GND GND PZ1_INA280A2 PARAMS:  GAIN=1 FP=50K
+  FZ=370K R=50E4
X_PZ1_33         N1957321 GND N1957327 GND GND PZ1_INA280A2 PARAMS:  GAIN=1 FP=7E6
+  FZ=14E6 R=50E4
X_PZ1_34         N1957327 GND N1957667 GND GND PZ1_INA280A2 PARAMS:  GAIN=1 FP=8E6
+  FZ=15E6 R=100E4
X_PZ1_35         N1957667 GND N1957673 GND GND PZ1_INA280A2 PARAMS:  GAIN=1 FP=8E6
+  FZ=15E6 R=500E4
X_U59         VS_B GND VCM_MIN GND VCM_MIN_VAR_INA280A2 
X_U60         VSENSE GND N1693240 GND P1_INA280A2 PARAMS:  GAIN=1 FP=5E6 R=1E6
X_U61         N1693236 GND N1647758 GND P1_INA280A2 PARAMS:  GAIN=1 FP=5.5E6 R=1E6
X_U62         N1647758 GND N1647745 GND P1_INA280A2 PARAMS:  GAIN=1 FP=5.5E6 R=1E6
X_U63         N1647745 GND N1647333 GND P1_INA280A2 PARAMS:  GAIN=1 FP=5.5E6 R=5E6
X_U64         N1647333 GND N1510117 GND P1_INA280A2 PARAMS:  GAIN=1 FP=5.5E6 R=10E6
X_U66         N1693240 GND N1693236 GND P1_INA280A2 PARAMS:  GAIN=1 FP=5.4E6 R=1E6
X_U67         VS_B GND N1752887 GND DC_REJ_SUB_INA280A2 PARAMS:  DC_REJ=120 R=1
X_U68         N1752887 GND N1752895 GND GND ZP1_INA280A2 PARAMS:  GAIN=1 FP=170K FZ=60
+  R=1E8
X_U69         N1752895 GND N1752901 GND GND ZP1_INA280A2 PARAMS:  GAIN=1 FP=190E3
+  FZ=38E3 R=1E8
X_U70         N1752901 GND N1752907 GND GND ZP1_INA280A2 PARAMS:  GAIN=1 FP=10E6
+  FZ=800E3 R=1E8
X_U71         N1752907 GND PSR GND GND ZP1_INA280A2 PARAMS:  GAIN=1 FP=12E6 FZ=1.9E6
+  R=1E8
X_U74         N1510061 GND N1510061 N1511333 IBP_SENSE_INA280A2 PARAMS:  RSENSE=9804
X_VCM_CLAMPN         N1507219 GND N1506979 GND VCM_MAX VCM_MIN VCM_CLAMP_INA280A2 
X_VCM_CLAMPP         N1506669 GND N1505815 GND VCM_MAX VCM_MIN VCM_CLAMP_INA280A2 
X_VNOISE         N1511461 N1505573 VNOISE_INA280A2 PARAMS:  NV=50
X_VOS_DRIFT         N1511461 N1510061 VOS_DRIFT_INA280A2 PARAMS:  DC=5.2E-6 DRIFT=1E-6
+  POL=1
X_ZOUT_DC_SUB5         ACL N1957679 N1957301 N1510677 GND ZOUT_DC_SUB_INA280A2 PARAMS: 
+  ZOUT_DC=.103 ZOUT_MAX=300
X_ZP1LIM9         N1957673 GND N1957679 GND GND ZP1LIM_INA280A2 PARAMS:  GAIN=1
+  FZ=15.5E6 FP=1E11 R=1E12 IPOS=7.8E2 INEG=-1.32E3
X_ZP1_1         N1509415 GND N1509589 GND GND ZP1_INA280A2 PARAMS:  GAIN=1 FP=30E3 FZ=40
+  R=1E8
X_ZP1_2         N1509589 GND N1509595 GND GND ZP1_INA280A2 PARAMS:  GAIN=1 FP=8E6
+  FZ=25E3 R=1E8
X_ZP1_3         N1509595 GND CMR GND GND ZP1_INA280A2 PARAMS:  GAIN=1 FP=10E6 FZ=150E3
+  R=1E8
.ENDS  INA280A2
*
.SUBCKT 08_COMPLETE_A2_H3_INA280A2 1 2 3 4  
H_H3         3 4 VH_H3 -1E3
VH_H3         1 2 0V
.ENDS  08_COMPLETE_A2_H3_INA280A2
*
.SUBCKT AOL_1 VC+ VC- IOUT+ IOUT-
+ PARAMS:
+ GAIN = 1E-4
+ IPOS = .5
+ INEG = -.5
G1 IOUT+ IOUT- VALUE={LIMIT(GAIN*V(VC+,VC-),INEG,IPOS)}
.ENDS  AOL_1
*
.SUBCKT AOL_2_INA280A2 VC+ VC- IOUT+ IOUT-
+ PARAMS:
+ GAIN = 1E-2
+ IPOS = 2.66E-02
+ INEG = -2.66E-02
G1 IOUT+ IOUT- VALUE={LIMIT(GAIN*V(VC+,VC-),INEG,IPOS)}
.ENDS  AOL_2_INA280A2
*
.SUBCKT CLAMP_AMP_HI_INA280A2 VC+ VC- VIN COM VO+ VO-
.PARAM G = 10
GVO+ COM VO+ VALUE = {IF(V(VIN,COM)>V(VC+,COM),((V(VIN,COM)-V(VC+,COM))*G),0)}
GVO- COM VO- VALUE = {IF(V(VIN,COM)<V(VC-,COM),((V(VC-,COM)-V(VIN,COM))*G),0)}
.ENDS  CLAMP_AMP_HI_INA280A2
*
.SUBCKT CLAMP_AMP_LO_INA280A2 VC+ VC- VIN COM VO+ VO-
.PARAM G = 1
GVO+ COM VO+ VALUE = {IF(V(VIN,COM)>V(VC+,COM),((V(VIN,COM)-V(VC+,COM))*G),0)}
GVO- COM VO- VALUE = {IF(V(VIN,COM)<V(VC-,COM),((V(VC-,COM)-V(VIN,COM))*G),0)}
.ENDS  CLAMP_AMP_LO_INA280A2
*
.SUBCKT CLAWN_INA280A2 VC+ VC- IOUT+ IOUT-
G1 IOUT+ IOUT- TABLE {ABS(V(VC+,VC-))} =
+(0, 14E-6)
+(1.26, 1E-4)
+(2.3, 1.8E-4)
+(5, 3.93E-4)
+(10.6, 8.6E-4)
+(15, 1.27E-3)
+(17.6, 1.546E-3)
+(20.3, 1.88E-3)
+(23.1, 2.29E-3)
.ENDS  CLAWN_INA280A2
*
.SUBCKT CLAWP_INA280A2 VC+ VC- IOUT+ IOUT-
G1 IOUT+ IOUT- TABLE {ABS(V(VC+,VC-))}
+(0, 7E-5)
+(0.76169, 1.5E-4)
+(1.13016, 1.6E-4)
+(1.669, 2.19E-4)
+(2.96314, 3.93E-4)
+(4.301, 5.81E-4)
+(6.14937, 8.6E-4)
+(8.5746, 1.27E-3)
+(11.3559, 1.88E-3)
+(13, 2.29E-3)
.ENDS  CLAWP_INA280A2
*
.SUBCKT CLAW_SRC_INA280A2 VC+ VC- IOUT+ IOUT-
+ PARAMS:
+ GAIN = 1
+ IPOS = 7E-2
+ INEG = -8.8E-2
G1 IOUT+ IOUT- VALUE={LIMIT(GAIN*V(VC+,VC-),INEG,IPOS)}
.ENDS  CLAW_SRC_INA280A2
*
.SUBCKT CL_SRC_INA280A2 VC+ VC- IOUT+ IOUT-
+ PARAMS:
+ GAIN = 1
+ IPOS = 1.4E-1
+ INEG = -1.76E-1
G1 IOUT+ IOUT- VALUE={LIMIT(GAIN*V(VC+,VC-),INEG,IPOS)}
.ENDS  CL_SRC_INA280A2
*
.SUBCKT DC_REJ_SUB_INA280A2 VC+ VC- OUT+ OUT-
+ PARAMS:
+ DC_REJ = 120
+ R = 1
.MODEL R_NOISELESS RES (T_ABS=-273.15)
.PARAM GG1 = {PWR(10, (-(DC_REJ)/20))}
G1 OUT- OUT+ VC+ VC- {GG1}
R1 OUT+ OUT- R_NOISELESS  {R}
.ENDS  DC_REJ_SUB_INA280A2
*
.SUBCKT GR_SRC_INA280A2 VC+ VC- IOUT+ IOUT-
+ PARAMS:
+ GAIN = 1
+ IPOS = 5.32E-2
+ INEG = -5.32E-2
G1 IOUT+ IOUT- VALUE={LIMIT(GAIN*V(VC+,VC-),INEG,IPOS)}
.ENDS  GR_SRC_INA280A2
*
.SUBCKT IBN_INA280A2 VINN GND CM_IN
G1 VINN GND TABLE {(V(CM_IN,GND))} =
+(1, 225E-9)
+(3.5, 19.975E-6)
.ENDS  IBN_INA280A2
*
.SUBCKT IBP_INA280A2 VINP GND CM_IN
G1 VINP GND TABLE {(V(CM_IN,GND))} =
+(1, 200E-9)
+(3.5, 20E-6)
.ENDS  IBP_INA280A2
*
.SUBCKT IBP_SENSE_INA280A2 VINP GND IB+ IB-
+ PARAMS:
+ RSENSE = 23847
G1 VINP GND VALUE={(V(IB+, GND)-V(IB-,GND))/RSENSE}
.ENDS  IBP_SENSE_INA280A2
*
.SUBCKT P1_INA280A2 VC+ VC- OUT+ OUT-
+ PARAMS: 
+ GAIN = 1
+ FP = 1
+ R = 1E6
.MODEL R_NOISELESS RES (T_ABS=-273.15)
.PARAM CC1 = {1/(6.2831853 * FP * R)}
.PARAM GG1 = {GAIN / R}
G1 OUT- OUT+ VC+ VC- {GG1}
R1 OUT+ OUT- R_NOISELESS {R}
C1 OUT+ OUT- {CC1}
.ENDS  P1_INA280A2
*
.SUBCKT PZ1_INA280A2 VC+ VC- OUT+ OUT- 1
+ PARAMS: 
+ GAIN = 1
+ FP = 1E3
+ FZ = 1E4
+ R = 1E6
.MODEL R_NOISELESS RES (T_ABS=-273.15)
.PARAM CC1 = {1/(6.2831853 * FZ * R)}
.PARAM RR1 = {(1/(6.2831853 * FP * CC1)) - R}
C1 2 1 {CC1}
G1 OUT- OUT+ 3 1 {GAIN}
R1 VC+ 3 R_NOISELESS {RR1}
R2 3 2 R_NOISELESS {R}
R3 OUT+ OUT- R_NOISELESS 1
.ENDS  PZ1_INA280A2
*
.SUBCKT VCM_CLAMP_INA280A2 VIN+ VIN- IOUT- IOUT+ VP+ VP-
.PARAM GAIN = 1
G1 IOUT+ IOUT- VALUE={LIMIT(GAIN*V(VIN+,VIN-),V(VP-,VIN-), V(VP+,VIN-))}
.ENDS  VCM_CLAMP_INA280A2
*
.SUBCKT VCM_MIN_VAR_INA280A2 VS_IN GND VCM_ACTUAL GND
E1 VCM_ACTUAL GND TABLE {ABS(V(VS_IN,GND))} =
+(2.7, 2.50)
+(5, 2.58)
+(7.5, 3.3)
+(8.75, 3.9)
+(13.75, 5.4)
+(20, 6.88)
.ENDS  VCM_MIN_VAR_INA280A2
*
.SUBCKT VNOISE_INA280A2 1 2
+ PARAMS:
+ NV = 1E3
.PARAM RNV={1.184*PWR(NV,2)}
R4 5 0 {RNV}
R5 5 0 {RNV}
E3 1 2 5 0 10
.ENDS  VNOISE_INA280A2
*
.SUBCKT VOS_DRIFT_INA280A2 VOS+ VOS-
+ PARAMS:
+ DC = 20E-6
+ DRIFT = 1E-6
+ POL = 1
E1 VOS+ VOS- VALUE={DC+POL*DRIFT*(TEMP-27)}
.ENDS  VOS_DRIFT_INA280A2
*
.SUBCKT ZOUT_DC_SUB_INA280A2 INA INB OUTA OUTB COM
+ PARAMS:
+ ZOUT_DC = 1
+ ZOUT_MAX = 1E3
.MODEL R_NOISELESS RES (T_ABS=-273.15)
.PARAM BETA = 1
.PARAM RDUMMY = {10*ZOUT_MAX}
.PARAM RX = {100*ZOUT_MAX}
.PARAM G1 = {RX/(ZOUT_DC*BETA)}
G1 COM OUTA INA OUTB {G1}
R1 OUTA COM R_NOISELESS 1
RDUMMY OUTB COM R_NOISELESS {RDUMMY}
RX INB OUTB R_NOISELESS {RX}
.ENDS  ZOUT_DC_SUB_INA280A2
*
.SUBCKT ZP1_INA280A2 VC+ VC- OUT+ OUT- 1
+ PARAMS:
+ GAIN = 1
+ FZ = 1E3
+ FP = 1E4
+ R = 1E6
.MODEL R_NOISELESS RES (T_ABS=-273.15)
.PARAM GG1 = {GAIN * FP/FZ}
.PARAM CC1 = {1/(6.2831853 * FZ * R)}
.PARAM RR1 = {R/(FP/FZ - 1)}
C1 VC+ 2 {CC1}
G1 OUT- OUT+ 2 1 {GG1}
R1 VC+ 2 R_NOISELESS {R}
R2 2 1 R_NOISELESS {RR1}
R3 OUT+ OUT- R_NOISELESS 1
.ENDS  ZP1_INA280A2
*
.SUBCKT ZP1LIM_INA280A2 VC+ VC- OUT+ OUT- 1
+ PARAMS:
+ GAIN = 1
+ FZ = 1E3
+ FP = 1E4
+ R = 1E6
+ IPOS = 1.72E3
+ INEG = -2.9E3
.MODEL R_NOISELESS RES (T_ABS=-273.15)
.PARAM GG1 = {GAIN * FP/FZ}
.PARAM CC1 = {1/(6.2831853 * FZ * R)}
.PARAM RR1 = {R/(FP/FZ - 1)}
C1 VC+ 2 {CC1}
G1 OUT- OUT+ VALUE={LIMIT(GG1 * V(2, 1), INEG, IPOS)}
R1 VC+ 2 R_NOISELESS {R}
R2 2 1 R_NOISELESS {RR1}
R3 OUT+ OUT- R_NOISELESS 1
.ENDS  ZP1LIM_INA280A2
*