* INA280A3
*****************************************************************************
* (C) Copyright 2019 Texas Instruments Incorporated. All rights reserved.   
*****************************************************************************
** This model is designed as an aid for customers of Texas Instruments.
** TI and its licensors and suppliers make no warranties, either expressed
** or implied, with respect to this model, including the warranties of
** merchantability or fitness for a particular purpose.  The model is
** provided solely on an "as is" basis.  The entire risk as to its quality
** and performance is with the customer
*****************************************************************************
*
* This model is subject to change without notice. Texas Instruments
* Incorporated is not responsible for updating this model.
*
*****************************************************************************
*
* Released by: Texas Instruments Inc.
* Part: INA280A3
* Date: 2021-04-12
* Model Type:  All-in-One
* Simulator: Cadence PSpice
* Simulator Version: 16.6
* Datasheet: SBOSA19 - October 2020
*
* Model Version: A
*
*****************************************************************************	
* MACRO-MODEL SIMULATED PARAMETERS:
*****************************************************************************
* AC PARAMETERS (Typical)
**********************
* CLOSED-LOOP OUTPUT IMPEDANCE VS. FREQUENCY (Zout vs. Freq.)
* CLOSED-LOOP GAIN VS. FREQUENCY  WITH RL, CL EFFECTS (Acl vs. Freq.)
* COMMON-MODE REJECTION RATIO VS. FREQUENCY (CMRR vs. Freq.)
* POWER SUPPLY REJECTION RATIO VS. FREQUENCY (PSRR vs. Freq.)
* INPUT VOLTAGE NOISE DENSITY VS. FREQUENCY (en vs. Freq.)
**********************
* DC PARAMETERS (Typical)
**********************
* INPUT COMMON-MODE VOLTAGE RANGE (Vcm)
* MINIMUM COMMON-MODE VOLTAGE VS. SUPPLY
* GAIN ERROR (Eg)
* INPUT BIAS CURRENT VS. INPUT COMMON-MODE VOLTAGE (Ib vs. Vcm)
* INPUT BIAS CURRENT VS. SENSE VOLTAGE (Ib vs. Vsense)
* INPUT OFFSET VOLTAGE VS. TEMPERATURE (Vos vs. Temp)
* OUTPUT VOLTAGE SWING vs. OUTPUT CURRENT (Vout vs. Iout)
* SHORT-CIRCUIT OUTPUT CURRENT (Isc)
* QUIESCENT CURRENT (Iq)
**********************
* TRANSIENT PARAMETERS
**********************
* SLEW RATE (SR)
* OVERLOAD RECOVERY TIME (tor)
******************************************************
.SUBCKT INA280A3 IN+ IN- VS GND OUT
******************************************************
.MODEL R_NOISELESS RES (T_ABS=-273.15)
C_C10         GND N1524908  1E-15   
C_C11         N1525594 GND  1E-15   
C_C12         GND N1526256  1E-15   
C_C13         N1526336 GND  1E-15   
C_C14         GND N1529224  1E-15   
C_C15         N1529298 GND  1E-15   
C_C16         GND N1529628  1E-15   
C_C28         GND VIMON  20E-9   
C_C29         GND VOUT_S  1E-9   
C_C33         VS_B 0  1E-15   
C_C35         N1524356 GND  1E-15   
C_C36         GND N1527226  30P   
C_C7         N1523796 GND  1E-15   
C_C8         GND N1527798  1E-15   
C_C9         GND N1528798  1E-15   
C_CC         CLAMP GND  3.5E-9   
E_E24         N1525130 N1529284 CMR GND -0.5
E_E25         N1524606 N1523510 CMR GND 0.5
E_E27         N1524612 N1524606 PSR GND 0.5
E_E28         N1525168 N1525130 PSR GND -0.5
E_E29         N1996463 GND VIMON GND 1
E_E3         N1526992 GND OUT GND 1
G_G12         VSENSE GND CLAMP GND -1E-3
G_G15         CLAW_CLAMP GND N1773837 GND -1E-3
G_G16         CL_CLAMP GND CLAW_CLAMP GND -1E-3
G_G36         N1525246 0 VS 0 -1
G_G61         N1526912 GND GND IN- -1
G_G62         VICM GND IN+ N1526912 -0.5
G_G66         ACL GND CL_CLAMP GND -1
G_G8         VS_CLP GND N1527798 GND -1E-3
G_G9         GND_CLP GND N1528798 GND -1E-3
I_I_Q         VS GND DC 500E-6  
R_R107         N1525246 0 R_NOISELESS 1
R_R110         N1525246 VS_B R_NOISELESS 1E-3
R_R147         N1526912 GND R_NOISELESS 1
R_R148         VICM GND R_NOISELESS 1
R_R153         GND VCM_MIN R_NOISELESS 1E9
R_R154         VCM_MAX GND R_NOISELESS 1E9
R_R155         GND N1524928 R_NOISELESS 1
R_R156         N1524356 N1524928 R_NOISELESS 1E-3
R_R157         GND ACL R_NOISELESS 1
R_R158         N1529284 N1528006  6.6K TC=0,0 
R_R159         N1527226 N1996463  100 TC=0,0 
R_R160         GND N1996463 R_NOISELESS 1E9
R_R27         GND N1523758 R_NOISELESS 1
R_R28         N1523796 N1523758 R_NOISELESS 1E-3
R_R29         N1527720 VS_B R_NOISELESS 1E3
R_R30         N1527798 N1527720 R_NOISELESS 1E-3
R_R31         VS_CLP GND R_NOISELESS 1E3
R_R32         N1528742 GND R_NOISELESS 1E3
R_R33         N1528798 N1528742 R_NOISELESS 1E-3
R_R34         GND_CLP GND R_NOISELESS 1E3
R_R35         GND VS_CLP R_NOISELESS 1E9
R_R36         N1524836 GND R_NOISELESS 1
R_R37         N1524908 N1524836 R_NOISELESS 1E-3
R_R38         N1525594 N1525628 R_NOISELESS 1E-3
R_R39         GND N1525628 R_NOISELESS 1
R_R40         GND GND_CLP R_NOISELESS 1E9
R_R41         GND N1528614 R_NOISELESS 1E9
R_R42         N1526214 GND R_NOISELESS 1
R_R43         N1526256 N1526214 R_NOISELESS 1E-3
R_R44         N1526336 N1526368 R_NOISELESS 1E-3
R_R45         GND N1526368 R_NOISELESS 1
R_R46         GND N1527716 R_NOISELESS 1E9
R_R49         GND N1529514 R_NOISELESS 1E9
R_R50         N1529174 GND R_NOISELESS 1
R_R51         N1529224 N1529174 R_NOISELESS 1E-3
R_R52         N1529298 N1523546 R_NOISELESS 1E-3
R_R53         GND N1523546 R_NOISELESS 1
R_R54         GND N1529460 R_NOISELESS 1E9
R_R55         N1529628 VSENSE R_NOISELESS 1E-3
R_R60         GND AOL_1 R_NOISELESS 1E6
R_R61         GND CLAMP R_NOISELESS 1E6
R_R62         GND VSENSE R_NOISELESS 1E3
R_R65         GND CLAW_CLAMP R_NOISELESS 1E3
R_R66         GND CL_CLAMP R_NOISELESS 1E3
R_R81         GND N1526016 R_NOISELESS 1E9
R_R82         VIMON N1526016 R_NOISELESS 100
R_R83         GND N1526992 R_NOISELESS 1E9
R_R84         VOUT_S N1526992 R_NOISELESS 100
R_R_EGN         N1529056 ACL R_NOISELESS 260
R_R_EGP         N1528632 GND R_NOISELESS 260
R_R_FN         N1525394 N1529056 R_NOISELESS 100K
R_R_FP         N1524662 N1528632 R_NOISELESS 100K
R_R_IN         N1524356 N1525394 R_NOISELESS 1E3
R_R_INN         N1529284 IN- R_NOISELESS 1E-6
R_R_INP         N1528006 IN+ R_NOISELESS 1E-6
R_R_IP         N1523796 N1524662 R_NOISELESS 1E3
V_VCM_MAX         VCM_MAX GND 122
V_V_GRN         N1529460 GND -28.6
V_V_GRP         N1529514 GND 25.9
V_V_ISCN         N1527716 GND -22
V_V_ISCP         N1528614 GND 13
X_AOL_1         N1524662 N1525394 GND AOL_1 AOL_1 
X_AOL_2         AOL_1 GND GND CLAMP AOL_2_INA280A3 PARAMS:  GAIN=1E-2 IPOS=7E-3
+  INEG=-7E-3
X_CLAWN         GND N1527226 GND N1528742 CLAWN_INA280A3 
X_CLAWP         N1527226 GND N1527720 VS_B CLAWP_INA280A3 
X_CLAW_AMP         VS_CLP GND_CLP VOUT_S GND N1524836 N1525628 CLAMP_AMP_LO_INA280A3 
X_CLAW_SRC         N1524908 N1525594 CLAW_CLAMP GND CLAW_SRC_INA280A3 PARAMS:  GAIN=1
+  IPOS=5.18E-2 INEG=-5.72E-2
X_CL_AMP         N1528614 N1527716 VIMON GND N1526214 N1526368 CLAMP_AMP_LO_INA280A3 
X_CL_SRC         N1526256 N1526336 CL_CLAMP GND CL_SRC_INA280A3 PARAMS:  GAIN=1
+  IPOS=1.04E-1 INEG=-1.14E-1
X_DC_REJ_SUB_CMR         VICM GND N1527366 GND DC_REJ_SUB_INA280A3 PARAMS:  DC_REJ=140
+  R=1
X_GR_AMP         N1529514 N1529460 N1529628 GND N1529174 N1523546 CLAMP_AMP_HI_INA280A3 
X_GR_SRC         N1529224 N1529298 CLAMP GND GR_SRC_INA280A3 PARAMS:  GAIN=1 IPOS=1.4E-2
+  INEG=-1.4E-2
X_H3    OUT N1528628 N1526016 GND 08_COMPLETE_A3_H3_INA280A3 
X_IBN         N1529284 GND VICM IBN_INA280A3 
X_IBP         N1528006 GND VICM IBP_INA280A3 
X_P1         VSENSE GND N1544122 GND P1_INA280A3 PARAMS:  GAIN=1 FP=3.2E6 R=1E6
X_P2         N1544122 GND N1545596 GND P1_INA280A3 PARAMS:  GAIN=1 FP=3.3E6 R=10E6
X_PZ1_26         N1957627 GND N1957633 GND GND PZ1_INA280A3 PARAMS:  GAIN=1 FP=70K
+  FZ=250K R=50E4
X_PZ1_27         N1957639 GND N1957979 GND GND PZ1_INA280A3 PARAMS:  GAIN=1 FP=8E6
+  FZ=15E6 R=100E4
X_PZ1_28         N1957633 GND N1957639 GND GND PZ1_INA280A3 PARAMS:  GAIN=1 FP=7E6
+  FZ=14E6 R=50E4
X_PZ1_29         N1957979 GND N1957985 GND GND PZ1_INA280A3 PARAMS:  GAIN=1 FP=8E6
+  FZ=15E6 R=500E4
X_PZ1_7         N1957613 GND N1957621 GND GND PZ1_INA280A3 PARAMS:  GAIN=1 FP=20K
+  FZ=180K R=1E4
X_PZ1_8         N1957621 GND N1957627 GND GND PZ1_INA280A3 PARAMS:  GAIN=1 FP=22K
+  FZ=210K R=10E4
X_U57         VS_B GND N1808426 GND DC_REJ_SUB_INA280A3 PARAMS:  DC_REJ=120 R=1
X_U58         N1808426 GND N1808434 GND GND ZP1_INA280A3 PARAMS:  GAIN=1 FP=170K FZ=80
+  R=1E8
X_U59         VS_B GND VCM_MIN GND VCM_MIN_VAR_INA280A3 
X_U60         N1808440 GND N1808446 GND GND ZP1_INA280A3 PARAMS:  GAIN=1 FP=10E6
+  FZ=800E3 R=1E8
X_U61         N1808446 GND PSR GND GND ZP1_INA280A3 PARAMS:  GAIN=1 FP=12E6 FZ=1.9E6
+  R=1E8
X_U69         N1545596 GND N1765154 GND P1_INA280A3 PARAMS:  GAIN=1 FP=3.4E6 R=10E6
X_U70         N1765154 GND N1765160 GND P1_INA280A3 PARAMS:  GAIN=1 FP=3.5E6 R=20E6
X_U71         N1765160 GND N1773837 GND P1_INA280A3 PARAMS:  GAIN=1 FP=3.5E6 R=50E6
X_U72         N1808434 GND N1808440 GND GND ZP1_INA280A3 PARAMS:  GAIN=1 FP=190E3
+  FZ=38E3 R=1E8
X_U74         N1528006 GND N1528006 N1529284 IBP_SENSE_INA280A3 PARAMS:  RSENSE=9901
X_VCM_CLAMPN         N1525168 GND N1524928 GND VCM_MAX VCM_MIN VCM_CLAMP_INA280A3 
X_VCM_CLAMPP         N1524612 GND N1523758 GND VCM_MAX VCM_MIN VCM_CLAMP_INA280A3 
X_VNOISE         N1529412 N1523510 VNOISE_INA280A3 PARAMS:  NV=50
X_VOS_DRIFT         N1529412 N1528006 VOS_DRIFT_INA280A3 PARAMS:  DC=4.2E-6 DRIFT=1E-6
+  POL=1
X_ZOUT_DC_SUB1         ACL N1957991 N1957613 N1528628 GND ZOUT_DC_SUB_INA280A3 PARAMS: 
+  ZOUT_DC=.103 ZOUT_MAX=300
X_ZP1LIM1         N1957985 GND N1957991 GND GND ZP1LIM_INA280A3 PARAMS:  GAIN=1
+  FZ=15.5E6 FP=1E11 R=1E12 IPOS=7.8E2 INEG=-1.32E3
X_ZP1_1         N1527366 GND N1527534 GND GND ZP1_INA280A3 PARAMS:  GAIN=1 FP=30E3 FZ=40
+  R=1E8
X_ZP1_2         N1527534 GND N1527540 GND GND ZP1_INA280A3 PARAMS:  GAIN=1 FP=8E6
+  FZ=25E3 R=1E8
X_ZP1_3         N1527540 GND CMR GND GND ZP1_INA280A3 PARAMS:  GAIN=1 FP=10E6 FZ=150E3
+  R=1E8
.ENDS  INA280A3
*
.SUBCKT 08_COMPLETE_A3_H3_INA280A3 1 2 3 4  
H_H3         3 4 VH_H3 -1E3
VH_H3         1 2 0V
.ENDS  08_COMPLETE_A3_H3_INA280A3
*
.SUBCKT AOL_1 VC+ VC- IOUT+ IOUT-
+ PARAMS:
+ GAIN = 1E-4
+ IPOS = .5
+ INEG = -.5
G1 IOUT+ IOUT- VALUE={LIMIT(GAIN*V(VC+,VC-),INEG,IPOS)}
.ENDS  AOL_1
*
.SUBCKT AOL_2_INA280A3 VC+ VC- IOUT+ IOUT-
+ PARAMS:
+ GAIN = 1E-2
+ IPOS = 2.66E-02
+ INEG = -2.66E-02
G1 IOUT+ IOUT- VALUE={LIMIT(GAIN*V(VC+,VC-),INEG,IPOS)}
.ENDS  AOL_2_INA280A3
*
.SUBCKT CLAMP_AMP_HI_INA280A3 VC+ VC- VIN COM VO+ VO-
.PARAM G = 10
GVO+ COM VO+ VALUE = {IF(V(VIN,COM)>V(VC+,COM),((V(VIN,COM)-V(VC+,COM))*G),0)}
GVO- COM VO- VALUE = {IF(V(VIN,COM)<V(VC-,COM),((V(VC-,COM)-V(VIN,COM))*G),0)}
.ENDS  CLAMP_AMP_HI_INA280A3
*
.SUBCKT CLAMP_AMP_LO_INA280A3 VC+ VC- VIN COM VO+ VO-
.PARAM G = 1
GVO+ COM VO+ VALUE = {IF(V(VIN,COM)>V(VC+,COM),((V(VIN,COM)-V(VC+,COM))*G),0)}
GVO- COM VO- VALUE = {IF(V(VIN,COM)<V(VC-,COM),((V(VC-,COM)-V(VIN,COM))*G),0)}
.ENDS  CLAMP_AMP_LO_INA280A3
*
.SUBCKT CLAWN_INA280A3 VC+ VC- IOUT+ IOUT-
G1 IOUT+ IOUT- TABLE {ABS(V(VC+,VC-))} =
+(0, 14E-6)
+(1.26, 1E-4)
+(2.3, 1.8E-4)
+(5, 3.93E-4)
+(10.6, 8.6E-4)
+(15, 1.27E-3)
+(17.6, 1.546E-3)
+(20.3, 1.88E-3)
+(23.1, 2.29E-3)
.ENDS  CLAWN_INA280A3
*
.SUBCKT CLAWP_INA280A3 VC+ VC- IOUT+ IOUT-
G1 IOUT+ IOUT- TABLE {ABS(V(VC+,VC-))}
+(0, 7E-5)
+(0.76169, 1.5E-4)
+(1.13016, 1.6E-4)
+(1.669, 2.19E-4)
+(2.96314, 3.93E-4)
+(4.301, 5.81E-4)
+(6.14937, 8.6E-4)
+(8.5746, 1.27E-3)
+(11.3559, 1.88E-3)
+(13, 2.29E-3)
.ENDS  CLAWP_INA280A3
*
.SUBCKT CLAW_SRC_INA280A3 VC+ VC- IOUT+ IOUT-
+ PARAMS:
+ GAIN = 1
+ IPOS = 7E-2
+ INEG = -8.8E-2
G1 IOUT+ IOUT- VALUE={LIMIT(GAIN*V(VC+,VC-),INEG,IPOS)}
.ENDS  CLAW_SRC_INA280A3
*
.SUBCKT CL_SRC_INA280A3 VC+ VC- IOUT+ IOUT-
+ PARAMS:
+ GAIN = 1
+ IPOS = 1.4E-1
+ INEG = -1.76E-1
G1 IOUT+ IOUT- VALUE={LIMIT(GAIN*V(VC+,VC-),INEG,IPOS)}
.ENDS  CL_SRC_INA280A3
*
.SUBCKT DC_REJ_SUB_INA280A3 VC+ VC- OUT+ OUT-
+ PARAMS:
+ DC_REJ = 120
+ R = 1
.MODEL R_NOISELESS RES (T_ABS=-273.15)
.PARAM GG1 = {PWR(10, (-(DC_REJ)/20))}
G1 OUT- OUT+ VC+ VC- {GG1}
R1 OUT+ OUT- R_NOISELESS  {R}
.ENDS  DC_REJ_SUB_INA280A3
*
.SUBCKT GR_SRC_INA280A3 VC+ VC- IOUT+ IOUT-
+ PARAMS:
+ GAIN = 1
+ IPOS = 5.32E-2
+ INEG = -5.32E-2
G1 IOUT+ IOUT- VALUE={LIMIT(GAIN*V(VC+,VC-),INEG,IPOS)}
.ENDS  GR_SRC_INA280A3
*
.SUBCKT IBN_INA280A3 VINN GND CM_IN
G1 VINN GND TABLE {(V(CM_IN,GND))} =
+(1, 225E-9)
+(3.5, 19.975E-6)
.ENDS  IBN_INA280A3
*
.SUBCKT IBP_INA280A3 VINP GND CM_IN
G1 VINP GND TABLE {(V(CM_IN,GND))} =
+(1, 200E-9)
+(3.5, 20E-6)
.ENDS  IBP_INA280A3
*
.SUBCKT IBP_SENSE_INA280A3 VINP GND IB+ IB-
+ PARAMS:
+ RSENSE = 23847
G1 VINP GND VALUE={(V(IB+, GND)-V(IB-,GND))/RSENSE}
.ENDS  IBP_SENSE_INA280A3
*
.SUBCKT P1_INA280A3 VC+ VC- OUT+ OUT-
+ PARAMS: 
+ GAIN = 1
+ FP = 1
+ R = 1E6
.MODEL R_NOISELESS RES (T_ABS=-273.15)
.PARAM CC1 = {1/(6.2831853 * FP * R)}
.PARAM GG1 = {GAIN / R}
G1 OUT- OUT+ VC+ VC- {GG1}
R1 OUT+ OUT- R_NOISELESS {R}
C1 OUT+ OUT- {CC1}
.ENDS  P1_INA280A3
*
.SUBCKT PZ1_INA280A3 VC+ VC- OUT+ OUT- 1
+ PARAMS: 
+ GAIN = 1
+ FP = 1E3
+ FZ = 1E4
+ R = 1E6
.MODEL R_NOISELESS RES (T_ABS=-273.15)
.PARAM CC1 = {1/(6.2831853 * FZ * R)}
.PARAM RR1 = {(1/(6.2831853 * FP * CC1)) - R}
C1 2 1 {CC1}
G1 OUT- OUT+ 3 1 {GAIN}
R1 VC+ 3 R_NOISELESS {RR1}
R2 3 2 R_NOISELESS {R}
R3 OUT+ OUT- R_NOISELESS 1
.ENDS  PZ1_INA280A3
*
.SUBCKT VCM_CLAMP_INA280A3 VIN+ VIN- IOUT- IOUT+ VP+ VP-
.PARAM GAIN = 1
G1 IOUT+ IOUT- VALUE={LIMIT(GAIN*V(VIN+,VIN-),V(VP-,VIN-), V(VP+,VIN-))}
.ENDS  VCM_CLAMP_INA280A3
*
.SUBCKT VCM_MIN_VAR_INA280A3 VS_IN GND VCM_ACTUAL GND
E1 VCM_ACTUAL GND TABLE {ABS(V(VS_IN,GND))} =
+(2.7, 2.50)
+(5, 2.58)
+(7.5, 3.3)
+(8.75, 3.9)
+(13.75, 5.4)
+(20, 6.88)
.ENDS  VCM_MIN_VAR_INA280A3
*
.SUBCKT VNOISE_INA280A3 1 2
+ PARAMS:
+ NV = 1E3
.PARAM RNV={1.184*PWR(NV,2)}
R4 5 0 {RNV}
R5 5 0 {RNV}
E3 1 2 5 0 10
.ENDS  VNOISE_INA280A3
*
.SUBCKT VOS_DRIFT_INA280A3 VOS+ VOS-
+ PARAMS:
+ DC = 20E-6
+ DRIFT = 1E-6
+ POL = 1
E1 VOS+ VOS- VALUE={DC+POL*DRIFT*(TEMP-27)}
.ENDS  VOS_DRIFT_INA280A3
*
.SUBCKT ZOUT_DC_SUB_INA280A3 INA INB OUTA OUTB COM
+ PARAMS:
+ ZOUT_DC = 1
+ ZOUT_MAX = 1E3
.MODEL R_NOISELESS RES (T_ABS=-273.15)
.PARAM BETA = 1
.PARAM RDUMMY = {10*ZOUT_MAX}
.PARAM RX = {100*ZOUT_MAX}
.PARAM G1 = {RX/(ZOUT_DC*BETA)}
G1 COM OUTA INA OUTB {G1}
R1 OUTA COM R_NOISELESS 1
RDUMMY OUTB COM R_NOISELESS {RDUMMY}
RX INB OUTB R_NOISELESS {RX}
.ENDS  ZOUT_DC_SUB_INA280A3
*
.SUBCKT ZP1_INA280A3 VC+ VC- OUT+ OUT- 1
+ PARAMS:
+ GAIN = 1
+ FZ = 1E3
+ FP = 1E4
+ R = 1E6
.MODEL R_NOISELESS RES (T_ABS=-273.15)
.PARAM GG1 = {GAIN * FP/FZ}
.PARAM CC1 = {1/(6.2831853 * FZ * R)}
.PARAM RR1 = {R/(FP/FZ - 1)}
C1 VC+ 2 {CC1}
G1 OUT- OUT+ 2 1 {GG1}
R1 VC+ 2 R_NOISELESS {R}
R2 2 1 R_NOISELESS {RR1}
R3 OUT+ OUT- R_NOISELESS 1
.ENDS  ZP1_INA280A3
*
.SUBCKT ZP1LIM_INA280A3 VC+ VC- OUT+ OUT- 1
+ PARAMS:
+ GAIN = 1
+ FZ = 1E3
+ FP = 1E4
+ R = 1E6
+ IPOS = 1.72E3
+ INEG = -2.9E3
.MODEL R_NOISELESS RES (T_ABS=-273.15)
.PARAM GG1 = {GAIN * FP/FZ}
.PARAM CC1 = {1/(6.2831853 * FZ * R)}
.PARAM RR1 = {R/(FP/FZ - 1)}
C1 VC+ 2 {CC1}
G1 OUT- OUT+ VALUE={LIMIT(GG1 * V(2, 1), INEG, IPOS)}
R1 VC+ 2 R_NOISELESS {R}
R2 2 1 R_NOISELESS {RR1}
R3 OUT+ OUT- R_NOISELESS 1
.ENDS  ZP1LIM_INA280A3
*