* INA293A1
*****************************************************************************
* (C) Copyright 2019 Texas Instruments Incorporated. All rights reserved.   
*****************************************************************************
** This model is designed as an aid for customers of Texas Instruments.
** TI and its licensors and suppliers make no warranties, either expressed
** or implied, with respect to this model, including the warranties of
** merchantability or fitness for a particular purpose.  The model is
** provided solely on an "as is" basis.  The entire risk as to its quality
** and performance is with the customer
*****************************************************************************
*
* This model is subject to change without notice. Texas Instruments
* Incorporated is not responsible for updating this model.
*
*****************************************************************************
*
* Released by: Texas Instruments Inc.
* Part: INA293A1
* Date: 2019-12-08
* Model Type:  All-in-One
* Simulator: Cadence PSpice
* Simulator Version: 16.6
* Datasheet: SBOS470 - December 2019
*
* Model Version: A
*
*****************************************************************************	
* MACRO-MODEL SIMULATED PARAMETERS:
*****************************************************************************
* AC PARAMETERS
**********************
* CLOSED-LOOP OUTPUT IMPEDANCE VS. FREQUENCY (Zout vs. Freq.)
* CLOSED-LOOP GAIN AND PHASE VS. FREQUENCY  WITH RL, CL EFFECTS (Acl vs. Freq.)
* COMMON-MODE REJECTION RATIO VS. FREQUENCY (CMRR vs. Freq.)
* POWER SUPPLY REJECTION RATIO VS. FREQUENCY (PSRR vs. Freq.)
* INPUT VOLTAGE NOISE DENSITY VS. FREQUENCY (en vs. Freq.)
**********************
* DC PARAMETERS
**********************
* INPUT COMMON-MODE VOLTAGE RANGE (Vcm)
* GAIN ERROR (Eg)
* INPUT BIAS CURRENT VS. INPUT COMMON-MODE VOLTAGE (Ib vs. Vcm)
* INPUT BIAS CURRENT VS. SENSE VOLTAGE (Ib vs. Vsense)
* INPUT OFFSET VOLTAGE VS. TEMPERATURE (Vos vs. Temp)
* OUTPUT VOLTAGE SWING vs. OUTPUT CURRENT (Vout vs. Iout)
* SHORT-CIRCUIT OUTPUT CURRENT (Isc)
* QUIESCENT CURRENT (Iq)
**********************
* TRANSIENT PARAMETERS
**********************
* SLEW RATE (SR)
* SETTLING TIME VS. CAPACITIVE LOAD (ts)
* OVERLOAD RECOVERY TIME (tor)
******************************************************
.SUBCKT INA293A1 IN+ IN- VS GND OUT
******************************************************
.MODEL R_NOISELESS RES (T_ABS=-273.15)
C_C10         GND N1506923  1E-15   
C_C11         N1507625 GND  1E-15   
C_C12         GND N1508269  1E-15   
C_C13         N1508349 GND  1E-15   
C_C14         GND N1511229  1E-15   
C_C15         N1511303 GND  1E-15   
C_C16         GND N1511633  1E-15   
C_C33         VS_B 0  1E-15   
C_C35         N1506389 GND  1E-15   
C_C7         N1505829 GND  1E-15   
C_C8         GND N1509813  1E-15   
C_C9         GND N1510819  1E-15   
C_CC         CLAMP GND  9.9E-9   
C_C_VIMON         GND VIMON  1E-9   
C_C_VOUT_S         GND VOUT_S  4.7E-8   
E_E24         N1507145 N1511289 CMR GND -0.5
E_E25         N1506633 VN CMR GND 0.5
E_E27         N1506639 N1506633 PSR GND 0.5
E_E28         N1507183 N1507145 PSR GND -0.5
E_E3         N1509007 GND OUT GND 1
G_G12         VGROSS GND CLAMP GND -1E-3
G_G15         CLAW_CLAMP GND N1557959 GND -1E-3
G_G16         CL_CLAMP GND CLAW_CLAMP GND -1E-3
G_G36         N1507261 0 VS 0 -1
G_G61         N1508925 GND GND IN- -1
G_G62         VICM GND IN+ N1508925 -0.5
G_G66         ACL GND CL_CLAMP GND -1
G_G67         VSENSE GND IN+ IN- -1
G_G8         VS_CLP GND N1509813 GND -1E-3
G_G9         GND_CLP GND N1510819 GND -1E-3
I_I_Q         VS GND DC 1.5E-3  
R_R107         N1507261 0 R_NOISELESS 1
R_R110         N1507261 VS_B R_NOISELESS 1E-3
R_R147         N1508925 GND R_NOISELESS 1
R_R148         VICM GND R_NOISELESS 1
R_R153         GND VCM_MIN R_NOISELESS 1E9
R_R154         VCM_MAX GND R_NOISELESS 1E9
R_R155         GND N1506943 R_NOISELESS 1
R_R156         N1506389 N1506943 R_NOISELESS 1E-3
R_R157         GND ACL R_NOISELESS 1
R_R158         VSENSE GND R_NOISELESS 1
R_R27         GND N1505791 R_NOISELESS 1
R_R28         N1505829 N1505791 R_NOISELESS 1E-3
R_R29         N1509755 VS_B R_NOISELESS 1E3
R_R30         N1509813 N1509755 R_NOISELESS 1E-3
R_R31         VS_CLP GND R_NOISELESS 1E3
R_R32         N1510747 GND R_NOISELESS 1E3
R_R33         N1510819 N1510747 R_NOISELESS 1E-3
R_R34         GND_CLP GND R_NOISELESS 1E3
R_R35         GND VS_CLP R_NOISELESS 1E9
R_R36         N1506857 GND R_NOISELESS 1
R_R37         N1506923 N1506857 R_NOISELESS 1E-3
R_R38         N1507625 N1507643 R_NOISELESS 1E-3
R_R39         GND N1507643 R_NOISELESS 1
R_R40         GND GND_CLP R_NOISELESS 1E9
R_R41         GND N1510629 R_NOISELESS 1E9
R_R42         N1508243 GND R_NOISELESS 1
R_R43         N1508269 N1508243 R_NOISELESS 1E-3
R_R44         N1508349 N1508381 R_NOISELESS 1E-3
R_R45         GND N1508381 R_NOISELESS 1
R_R46         GND N1509731 R_NOISELESS 1E9
R_R49         GND N1511519 R_NOISELESS 1E9
R_R50         N1511179 GND R_NOISELESS 1
R_R51         N1511229 N1511179 R_NOISELESS 1E-3
R_R52         N1511303 N1505587 R_NOISELESS 1E-3
R_R53         GND N1505587 R_NOISELESS 1
R_R54         GND N1511465 R_NOISELESS 1E9
R_R55         N1511633 VGROSS R_NOISELESS 1E-3
R_R60         GND N1506615 R_NOISELESS 1E6
R_R61         GND CLAMP R_NOISELESS 1E6
R_R62         GND VGROSS R_NOISELESS 1E3
R_R65         GND CLAW_CLAMP R_NOISELESS 1E3
R_R66         GND CL_CLAMP R_NOISELESS 1E3
R_R81         GND N1508029 R_NOISELESS 1E9
R_R82         VIMON N1508029 R_NOISELESS 100
R_R83         GND N1509007 R_NOISELESS 1E9
R_R84         VOUT_S N1509007 R_NOISELESS 100
R_R_EGN         N1511067 ACL R_NOISELESS 27
R_R_EGP         N1510647 GND R_NOISELESS 27
R_R_FN         N1507409 N1511067 R_NOISELESS 20E3
R_R_FP         N1506689 N1510647 R_NOISELESS 20E3
R_R_IN         N1506389 N1507409 R_NOISELESS 1E3
R_R_INN         N1511289 IN- R_NOISELESS 1E-6
R_R_INP         N1510027 IN+ R_NOISELESS 1E-6
R_R_IP         N1505829 N1506689 R_NOISELESS 1E3
V_VCM_MAX         VCM_MAX GND 110
V_VCM_MIN         VCM_MIN GND -4
V_V_GRN         N1511465 GND -25
V_V_GRP         N1511519 GND 24
V_V_ISCN         N1509731 GND -22
V_V_ISCP         N1510629 GND 13
X_AOL_1         N1506689 N1507409 GND N1506615 AOL_1_INA293A1 
X_AOL_2         N1506615 GND GND CLAMP AOL_2_INA293A1 PARAMS:  GAIN=1E-2 IPOS=2.48E-2
+  INEG=-1.98E-2
X_CLAWN         GND VIMON GND N1510747 CLAWN_INA293A1 
X_CLAWP         VIMON GND N1509755 VS_B CLAWP_INA293A1 
X_CLAW_AMP         VS_CLP GND_CLP VOUT_S GND N1506857 N1507643 CLAMP_AMP_LO_INA293A1 
X_CLAW_SRC         N1506923 N1507625 CLAW_CLAMP GND CLAW_SRC_INA293A1 PARAMS:  GAIN=1
+  IPOS=4.71E-2 INEG=-4.92E-2
X_CL_AMP         N1510629 N1509731 VIMON GND N1508243 N1508381 CLAMP_AMP_LO_INA293A1 
X_CL_SRC         N1508269 N1508349 CL_CLAMP GND CL_SRC_INA293A1 PARAMS:  GAIN=1
+  IPOS=9.41E-2 INEG=-9.83E-2
X_DC_REJ_SUB_CMR         VICM GND N1568279 GND DC_REJ_SUB_INA293A1 PARAMS:  DC_REJ=160
+  R=1
X_DC_REJ_SUB_PSR         VS_B GND N1572614 GND DC_REJ_SUB_INA293A1 PARAMS:  DC_REJ=120.6
+  R=1
X_GR_AMP         N1511519 N1511465 N1511633 GND N1511179 N1505587 CLAMP_AMP_HI_INA293A1 
X_GR_SRC         N1511229 N1511303 CLAMP GND GR_SRC_INA293A1 PARAMS:  GAIN=1
+  IPOS=4.95E-2 INEG=-3.96E-2
X_H3    OUT N1510643 N1508029 GND 08_COMPLETE_A1_H3_INA293A1 
X_IBN_VCM         N1511289 GND VICM IBN_VCM_INA293A1 
X_IBN_VSENSE         N1511289 GND VSENSE IBN_VSENSE_INA293A1 
X_IBP_VCM         N1510027 GND VICM IBP_VCM_INA293A1 
X_IBP_VSENSE_A1         N1510027 GND VSENSE IBP_VSENSE_A1_INA293A1 
X_P1_1         VGROSS GND N1555477 GND P1_INA293A1 PARAMS:  GAIN=1 FP=3.5E6 R=1E6
X_P1_2         N1555477 GND N1555331 GND P1_INA293A1 PARAMS:  GAIN=1 FP=1E7 R=1E6
X_P1_3         N1555331 GND N1555375 GND P1_INA293A1 PARAMS:  GAIN=1 FP=1E7 R=1E6
X_P1_4         N1555375 GND N1560048 GND P1_INA293A1 PARAMS:  GAIN=1 FP=1E7 R=1E6
X_P1_5         N1560048 GND N1557959 GND P1_INA293A1 PARAMS:  GAIN=1 FP=5E7 R=1E6
X_PZ1_4         N1526928 GND N1531265 GND GND PZ1_INA293A1 PARAMS:  GAIN=1 FP=7E6
+  FZ=1.2E7 R=1E8
X_PZ1_5         N1531265 GND N1527108 GND GND PZ1_INA293A1 PARAMS:  GAIN=1 FP=7E6
+  FZ=1.2E7 R=1E8
X_PZ1_6         N1527108 GND N1527118 GND GND PZ1_INA293A1 PARAMS:  GAIN=1 FP=7E6
+  FZ=1.2E7 R=1E8
X_PZ1_7         N1527270 GND N1527218 GND GND PZ1_INA293A1 PARAMS:  GAIN=1 FP=3E4
+  FZ=3.4E5 R=1E4
X_PZ1_8         N1527218 GND N1527240 GND GND PZ1_INA293A1 PARAMS:  GAIN=1 FP=3E4
+  FZ=3.4E5 R=1E4
X_PZ1_9         N1527240 GND N1526928 GND GND PZ1_INA293A1 PARAMS:  GAIN=1 FP=4.5E4
+  FZ=1.1E5 R=1E4
X_VCM_CLAMPN         N1507183 GND N1506943 GND VCM_MAX VCM_MIN VCM_CLAMP_INA293A1 
X_VCM_CLAMPP         N1506639 GND N1505791 GND VCM_MAX VCM_MIN VCM_CLAMP_INA293A1 
X_VNOISE         N1511417 VN VNOISE_INA293A1 PARAMS:  NV=50.5
X_VOS_DRIFT         N1511417 N1510027 VOS_DRIFT_INA293A1 PARAMS:  DC=24.82E-6 DRIFT=5E-8
+  POL=1
X_ZOUT_DC_SUB1         ACL N1527166 N1527270 N1510643 GND ZOUT_DC_SUB_INA293A1 PARAMS: 
+  ZOUT_DC=0.1 ZOUT_MAX=100
X_ZP1LIM1         N1527118 GND N1527166 GND GND ZP1LIM_INA293A1 PARAMS:  GAIN=1 FZ=1E8
+  FP=1E11 R=1E8 IPOS=2.6E2 INEG=-4.4E2
X_ZP1_1         N1568279 GND N1568585 GND GND ZP1_INA293A1 PARAMS:  GAIN=1 FP=1E7 FZ=35
+  R=1E8
X_ZP1_2         N1568585 GND N1568579 GND GND ZP1_INA293A1 PARAMS:  GAIN=1 FP=2E5 FZ=5E4
+  R=1E8
X_ZP1_3         N1568579 GND CMR GND GND ZP1_INA293A1 PARAMS:  GAIN=1 FP=5E7 FZ=1E6
+  R=1E8
X_ZP1_4         N1572604 GND N1572598 GND GND ZP1_INA293A1 PARAMS:  GAIN=1 FP=1E6
+  FZ=1.6E5 R=1E8
X_ZP1_5         N1572598 GND PSR GND GND ZP1_INA293A1 PARAMS:  GAIN=1 FP=1E6 FZ=1.6E5
+  R=1E8
X_ZP1_6         N1572614 GND N1572924 GND GND ZP1_INA293A1 PARAMS:  GAIN=1 FP=4.5E4
+  FZ=7E3 R=1E8
X_ZP1_7         N1572924 GND N1576185 GND GND ZP1_INA293A1 PARAMS:  GAIN=1 FP=4.5E4
+  FZ=7E3 R=1E8
X_ZP1_8         N1576185 GND N1572604 GND GND ZP1_INA293A1 PARAMS:  GAIN=1 FP=4.5E4
+  FZ=7E3 R=1E8
.ENDS  INA293A1
*
.SUBCKT 08_COMPLETE_A1_H3_INA293A1 1 2 3 4  
H_H3         3 4 VH_H3 -1E3
VH_H3         1 2 0V
.ENDS  08_COMPLETE_A1_H3_INA293A1
*
.SUBCKT AOL_1_INA293A1 VC+ VC- IOUT+ IOUT-
+ PARAMS:
+ GAIN = 1E-4
+ IPOS = .5
+ INEG = -.5
G1 IOUT+ IOUT- VALUE={LIMIT(GAIN*V(VC+,VC-),INEG,IPOS)}
.ENDS  AOL_1_INA293A1
*
.SUBCKT AOL_2_INA293A1 VC+ VC- IOUT+ IOUT-
+ PARAMS:
+ GAIN = 1E-2
+ IPOS = 2.66E-02
+ INEG = -2.66E-02
G1 IOUT+ IOUT- VALUE={LIMIT(GAIN*V(VC+,VC-),INEG,IPOS)}
.ENDS  AOL_2_INA293A1
*
.SUBCKT CLAMP_AMP_HI_INA293A1 VC+ VC- VIN COM VO+ VO-
.PARAM G = 10
GVO+ COM VO+ VALUE = {IF(V(VIN,COM)>V(VC+,COM),((V(VIN,COM)-V(VC+,COM))*G),0)}
GVO- COM VO- VALUE = {IF(V(VIN,COM)<V(VC-,COM),((V(VC-,COM)-V(VIN,COM))*G),0)}
.ENDS  CLAMP_AMP_HI_INA293A1
*
.SUBCKT CLAMP_AMP_LO_INA293A1 VC+ VC- VIN COM VO+ VO-
.PARAM G = 1
GVO+ COM VO+ VALUE = {IF(V(VIN,COM)>V(VC+,COM),((V(VIN,COM)-V(VC+,COM))*G),0)}
GVO- COM VO- VALUE = {IF(V(VIN,COM)<V(VC-,COM),((V(VC-,COM)-V(VIN,COM))*G),0)}
.ENDS  CLAMP_AMP_LO_INA293A1
*
.SUBCKT CLAWN_INA293A1 VC+ VC- IOUT+ IOUT-
G1 IOUT+ IOUT- TABLE {ABS(V(VC+,VC-))} =
+(0, 5E-6)
+(10.6, 8.6E-4)
+(17.6, 1.55E-3)
+(20.3, 1.88E-3)
+(22.8, 2.29E-3)
.ENDS  CLAWN_INA293A1
*
.SUBCKT CLAWP_INA293A1 VC+ VC- IOUT+ IOUT-
G1 IOUT+ IOUT- TABLE {ABS(V(VC+,VC-))} =
+(0, 7E-5)
+(0.8, 1E-4)
+(7.3, 1.05E-3)
+(10, 1.55E-3)
+(11.4, 1.88E-3)
+(12.6, 2.29E-3)
+(13, 2.55E-3)
.ENDS  CLAWP_INA293A1
*
.SUBCKT CLAW_SRC_INA293A1 VC+ VC- IOUT+ IOUT-
+ PARAMS:
+ GAIN = 1
+ IPOS = 7E-2
+ INEG = -8.8E-2
G1 IOUT+ IOUT- VALUE={LIMIT(GAIN*V(VC+,VC-),INEG,IPOS)}
.ENDS  CLAW_SRC_INA293A1
*
.SUBCKT CL_SRC_INA293A1 VC+ VC- IOUT+ IOUT-
+ PARAMS:
+ GAIN = 1
+ IPOS = 1.4E-1
+ INEG = -1.76E-1
G1 IOUT+ IOUT- VALUE={LIMIT(GAIN*V(VC+,VC-),INEG,IPOS)}
.ENDS  CL_SRC_INA293A1
*
.SUBCKT DC_REJ_SUB_INA293A1 VC+ VC- OUT+ OUT-
+ PARAMS:
+ DC_REJ = 120
+ R = 1
.MODEL R_NOISELESS RES (T_ABS=-273.15)
.PARAM GG1 = {PWR(10, (-(DC_REJ)/20))}
G1 OUT- OUT+ VC+ VC- {GG1}
R1 OUT+ OUT- R_NOISELESS  {R}
.ENDS  DC_REJ_SUB_INA293A1
*
.SUBCKT GR_SRC_INA293A1 VC+ VC- IOUT+ IOUT-
+ PARAMS:
+ GAIN = 1
+ IPOS = 5.32E-2
+ INEG = -5.32E-2
G1 IOUT+ IOUT- VALUE={LIMIT(GAIN*V(VC+,VC-),INEG,IPOS)}
.ENDS  GR_SRC_INA293A1
*
.SUBCKT IBN_VCM_INA293A1 VINN GND VCM
G1 VINN GND TABLE {(V(VCM,GND))} =
+(-4, 19.84E-6)
+(110, 20.56E-6)
.ENDS  IBN_VCM_INA293A1
*
.SUBCKT IBN_VSENSE_INA293A1 VINN GND VSENSE
G1 VINN GND TABLE {(V(VSENSE,GND))} =
+(0, 0)
+(1, -155E-6)
.ENDS  IBN_VSENSE_INA293A1
*
.SUBCKT IBP_VCM_INA293A1 VINP GND VCM
G1 VINP GND TABLE {(V(VCM,GND))} =
+(-4, 19.84E-6)
+(110, 20.56E-6)
.ENDS  IBP_VCM_INA293A1
*
.SUBCKT IBP_VSENSE_A1_INA293A1 VINP GND VSENSE
G1 VINP GND TABLE {(V(VSENSE,GND))} =
+(0,0)
+(1, 197E-6)
.ENDS  IBP_VSENSE_A1_INA293A1
*
.SUBCKT P1_INA293A1 VC+ VC- OUT+ OUT-
+ PARAMS: 
+ GAIN = 1
+ FP = 1
+ R = 1E6
.MODEL R_NOISELESS RES (T_ABS=-273.15)
.PARAM CC1 = {1/(6.2831853 * FP * R)}
.PARAM GG1 = {GAIN / R}
G1 OUT- OUT+ VC+ VC- {GG1}
R1 OUT+ OUT- R_NOISELESS {R}
C1 OUT+ OUT- {CC1}
.ENDS  P1_INA293A1
*
.SUBCKT PZ1_INA293A1 VC+ VC- OUT+ OUT- 1
+ PARAMS: 
+ GAIN = 1
+ FP = 1E3
+ FZ = 1E4
+ R = 1E6
.MODEL R_NOISELESS RES (T_ABS=-273.15)
.PARAM CC1 = {1/(6.2831853 * FZ * R)}
.PARAM RR1 = {(1/(6.2831853 * FP * CC1)) - R}
C1 2 1 {CC1}
G1 OUT- OUT+ 3 1 {GAIN}
R1 VC+ 3 R_NOISELESS {RR1}
R2 3 2 R_NOISELESS {R}
R3 OUT+ OUT- R_NOISELESS 1
.ENDS  PZ1_INA293A1
*
.SUBCKT VCM_CLAMP_INA293A1 VIN+ VIN- IOUT- IOUT+ VP+ VP-
.PARAM GAIN = 1
G1 IOUT+ IOUT- VALUE={LIMIT(GAIN*V(VIN+,VIN-),V(VP-,VIN-), V(VP+,VIN-))}
.ENDS  VCM_CLAMP_INA293A1
*
.SUBCKT VNOISE_INA293A1 1 2
+ PARAMS:
+ NV = 1E3
.PARAM RNV={1.184*PWR(NV,2)}
R4 5 0 {RNV}
R5 5 0 {RNV}
E3 1 2 5 0 10
.ENDS  VNOISE_INA293A1
*
.SUBCKT VOS_DRIFT_INA293A1 VOS+ VOS-
+ PARAMS:
+ DC = 20E-6
+ DRIFT = 1E-6
+ POL = 1
E1 VOS+ VOS- VALUE={DC+POL*DRIFT*(TEMP-27)}
.ENDS  VOS_DRIFT_INA293A1
*
.SUBCKT ZOUT_DC_SUB_INA293A1 INA INB OUTA OUTB COM
+ PARAMS:
+ ZOUT_DC = 1
+ ZOUT_MAX = 1E3
.MODEL R_NOISELESS RES (T_ABS=-273.15)
.PARAM BETA = 1
.PARAM RDUMMY = {10*ZOUT_MAX}
.PARAM RX = {100*ZOUT_MAX}
.PARAM G1 = {RX/(ZOUT_DC*BETA)}
G1 COM OUTA INA OUTB {G1}
R1 OUTA COM R_NOISELESS 1
RDUMMY OUTB COM R_NOISELESS {RDUMMY}
RX INB OUTB R_NOISELESS {RX}
.ENDS  ZOUT_DC_SUB_INA293A1
*
.SUBCKT ZP1_INA293A1 VC+ VC- OUT+ OUT- 1
+ PARAMS:
+ GAIN = 1
+ FZ = 1E3
+ FP = 1E4
+ R = 1E6
.MODEL R_NOISELESS RES (T_ABS=-273.15)
.PARAM GG1 = {GAIN * FP/FZ}
.PARAM CC1 = {1/(6.2831853 * FZ * R)}
.PARAM RR1 = {R/(FP/FZ - 1)}
C1 VC+ 2 {CC1}
G1 OUT- OUT+ 2 1 {GG1}
R1 VC+ 2 R_NOISELESS {R}
R2 2 1 R_NOISELESS {RR1}
R3 OUT+ OUT- R_NOISELESS 1
.ENDS  ZP1_INA293A1
*
.SUBCKT ZP1LIM_INA293A1 VC+ VC- OUT+ OUT- 1
+ PARAMS:
+ GAIN = 1
+ FZ = 1E3
+ FP = 1E4
+ R = 1E6
+ IPOS = 1.72E3
+ INEG = -2.9E3
.MODEL R_NOISELESS RES (T_ABS=-273.15)
.PARAM GG1 = {GAIN * FP/FZ}
.PARAM CC1 = {1/(6.2831853 * FZ * R)}
.PARAM RR1 = {R/(FP/FZ - 1)}
C1 VC+ 2 {CC1}
G1 OUT- OUT+ VALUE={LIMIT(GG1 * V(2, 1), INEG, IPOS)}
R1 VC+ 2 R_NOISELESS {R}
R2 2 1 R_NOISELESS {RR1}
R3 OUT+ OUT- R_NOISELESS 1
.ENDS  ZP1LIM_INA293A1
*