* INA302A3
*****************************************************************************
* (C) Copyright 2020 Texas Instruments Incorporated. All rights reserved.                                            
*****************************************************************************
** This model is designed as an aid for customers of Texas Instruments.
** TI and its licensors and suppliers make no warranties, either expressed
** or implied, with respect to this model, including the warranties of 
** merchantability or fitness for a particular purpose.  The model is
** provided solely on an "as is" basis.  The entire risk as to its quality
** and performance is with the customer.
*****************************************************************************
*
** Released by: WEBENCH(R) Design Center, Texas Instruments Inc.
* Part: INA302A3
* Date: 05/14/2020
* Model Type: All In One
* Simulator: PSpice
* Simulator Version: 16.6
* EVM Order Number: N/A 
* EVM Users Guide: N/A
* Datasheet: SBOS775C – March 2019
*
* Model Version: 1.1
*
*****************************************************************************
*
* Updates:
*
* Version 1.0 : Release to Web
* Version 1.1 : Corrected bandwidth and output voltage swing limit
*
*****************************************************************************
* Notes: 
* 1. This model is intended to be used with 5V supplies
* 2. This model may not work with supplies less than 5V
*
*****************************************************************************
*$
.SUBCKT INA302A3 INP INN REF LATCH1 LATCH2 LIMIT1 LIMIT2 DELAY ALERT1 ALERT2 VS OUT GND
V_V4         N178305 0 1Vdc
R_R5         LATCH2 0  1e6 TC=0,0 
R_R2         N178471 S1_IN  15237.5 TC=0,0 
X_U7         LATCH2 VS ALERT2 CNTRL2_OUT VS GND CONTROL_INA302A3
C_C4         GND S4_IN  1p  TC=0,0 
R_R3         COMP_VCC_5V DELAY  244k TC=0,0 
X_U3         VS LIMIT1 VS LIMIT1 VS GND LIMIT_I_INA302A3 
R_R9         N177535 DELAY  10 TC=0,0 
X_U6         LATCH1 VS ALERT1 CNTRL1_OUT VS GND CONTROL_INA302A3 
E_E1         N178229 GND LIMIT1 GND 1
X_U101         COMP_VCC_5V COMP2_OUT N177763 INT_5V GND COMPARATOR_INA302A3 
X_S2    DELAY GND ALERT2 GND DEV_A3_SCH_S2_INA302A3 
X_S4    S4_IN GND VS DELAY DEV_A3_SCH_S4_INA302A3 
C_C3         GND S3_IN  1p  TC=0,0 
X_S1    S1_IN GND ALERT1 GND DEV_A3_SCH_S1_INA302A3 
X_U5         VS LIMIT2 VS LIMIT2 VS GND LIMIT_I_INA302A3 
R_R8         S4_IN CNTRL2_OUT  20k TC=0,0 
R_R7         S3_IN CNTRL1_OUT  20k TC=0,0 
C_C1         0 S1_IN  80p  TC=0,0 
C_C2         0 DELAY  6.15p  TC=0,0 
V_V2         N177763 0 1Vdc
D_D1         N177535 COMP_VCC_5V D_1
R_R6         REF 0  1e6 TC=0,0 
R_U200_R11         INN U200_N177985  1 TC=0,0 
L_U200_L1         U200_CMRR_OUT U200_N178491  100uH  
X_U200_U1         U200_OPA_INP U200_OPA_INN VS GND U200_N177573 INA302A3_OPA 
R_U200_R13         U200_N178491 GND  1 TC=0,0 
E_U200_E6         U200_N178733 U200_VSN_WOCM U200_CMRR_OUT GND -0.5
E_U200_E9         U200_N178153 U200_N178717 U200_CMIN GND 1
R_U200_R12         U200_N177573 OPA_OUT  0.1 TC=0,0 
I_U200_I1         U200_VSP_WOCM GND DC 119.9uAdc  
R_U200_R2         U200_VINP_MID U200_OPA_INP  2.5k TC=0,0 
R_U200_R8         GND U200_N178153  540k TC=0,0 
E_U200_E10         U200_N177985 U200_N178733 U200_CMIN GND 1
I_U200_I2         U200_VSN_WOCM GND DC 120.1uAdc  
E_U200_E3         U200_CMIN 0 INP U200_N177841 0.5
R_U200_R3         U200_VINN_MID U200_OPA_INN  2.5k TC=0,0 
R_U200_R9         U200_N177985 GND  540k TC=0,0 
R_U200_R10         INP U200_N178153  1 TC=0,0 
E_U200_E5         U200_N178717 U200_VSP_WOCM U200_CMRR_OUT GND 0.5
E_U200_E1         U200_VMID 0 VS U200_N178069 0.5
R_U200_R5         U200_OPA_INN U200_N177573  250e3 TC=3e-6,0 
R_U200_R4         U200_OPA_INP REF  250e3 TC=3e-6,0 
E_U200_E4         U200_N177841 0 0 INN 1
E_U200_E2         U200_N178069 0 0 GND 1
E_U200_E7         U200_VINP_MID U200_VSP_WOCM U200_VMID 0 1
E_U200_E8         U200_VINN_MID U200_VSN_WOCM U200_VMID 0 1
G_U200_G1         GND U200_CMRR_OUT U200_CMIN GND 3u
X_U102         N178471 COMP1_OUT N178305 INT_5V GND COMPARATOR_INA302A3 
R_U201_R2         OUT U201_N01947  20e3 TC=0,0 
V_U201_V1         N178229 U201_N03089 1.5e-3
X_U201_U1         COMP1_OUT U201_N01947 U201_N03089 VS GND COMPARATOR_INA302A3 
R_U201_R1         U201_N01947 COMP1_OUT  1e6 TC=0,0 
E_U100_E7         U100_N165884 0 U100_N_SUM 0 1
E_U100_E3         U100_AOL_ZO_IN 0 OPA_OUT OUT 1
C_U100_C6         0 U100_P1  160  TC=0,0 
R_U100_R6         U100_OUT_E4_ZO OUT  1e6 TC=0,0 
R_U100_R11         U100_P1 U100_N166036  100k TC=0,0 
E_U100_E4         U100_OUT_E4_ZO 0 U100_P2 0 1
R_U100_R8         U100_P2 U100_N165884  2.5k TC=0,0 
G_U100_G3         U100_N_SUM 0 U100_Z1 0 -1
E_U100_E5         U100_N166724 0 U100_AOL_ZO_IN 0 60
C_U100_C5         U100_N165960 U100_P2  10n  TC=0,0 
G_U100_G4         U100_N_SUM 0 U100_N166724 0 -1
C_U100_C4         U100_N166302 U100_Z1  1.6u  TC=0,0 
R_U100_R7         0 U100_Z1  1k TC=0,0 
R_U100_R9         U100_N165960 0  20 TC=0,0 
E_U100_E6         U100_N166302 0 U100_AOL_ZO_IN 0 1.3e6
E_U100_E8         U100_N166036 0 U100_AOL_ZO_IN 0 8e5
R_U100_R5         0 U100_N_SUM  1 TC=0,0 
G_U100_G5         U100_N_SUM 0 U100_P1 0 -1
R_U202_R2         OUT U202_N01947  20e3 TC=0,0 
V_U202_V1         N177459 U202_N03089 1.5e-3
X_U202_U1         COMP2_OUT U202_N01947 U202_N03089 VS GND COMPARATOR_INA302A3 
R_U202_R1         U202_N01947 COMP2_OUT  1e6 TC=0,0 
V_V1         INT_5V 0 5Vdc
X_S3    S3_IN GND VS S1_IN DEV_A3_SCH_S3_INA302A3 
R_R4         LATCH1 0  1e6 TC=0,0 
E_E2         N177459 GND LIMIT2 GND 1
.MODEL D_1 D 
.ENDS
*$
*
.SUBCKT DEV_A3_SCH_S2_INA302A3 1 2 3 4  
S_S2         3 4 1 2 _S2
RS_S2         1 2 1G
.MODEL         _S2 VSWITCH Roff=1e6 Ron=1.0 Voff=3.1 Von=3.25
.ENDS
*$
*
.SUBCKT DEV_A3_SCH_S4_INA302A3 1 2 3 4  
S_S4         3 4 1 2 _S4
RS_S4         1 2 1G
.MODEL         _S4 VSWITCH Roff=100e6 Ron=1.0 Voff=2V Von=3V
.ENDS
*$
*
.SUBCKT DEV_A3_SCH_S1_INA302A3 1 2 3 4  
S_S1         3 4 1 2 _S1
RS_S1         1 2 1G
.MODEL         _S1 VSWITCH Roff=1e6 Ron=1.0 Voff=2.0V Von=3.0V
.ENDS
*$
*
.SUBCKT DEV_A3_SCH_S3_INA302A3 1 2 3 4  
S_S3         3 4 1 2 _S3
RS_S3         1 2 1G
.MODEL         _S3 VSWITCH Roff=100e6 Ron=1.0 Voff=2V Von=3V
.ENDS
*$
*
.SUBCKT COMPARATOR_INA302A3 OUT INP INN VCC VEE 
emid nmid 0 VALUE = {(V(VCC) + V(VEE))/2}
eout out nmid VALUE = {IF(V(INP) >= V(INN),V(VCC,nmid),V(VEE,nmid))}
.ENDS
*$
*
.SUBCKT INA302A3_OPA VIP VIN VDD VSS VO
XU1        VIP VIN 23 22 GNDF  INPUT_INA302A3
+ PARAMS: RICM = 1G RIDM = 100e6 CICM = 1000f CIDM = 1000f
XU2        23 20  VNOISE_INA302A3
+ PARAMS: NLF = 100 FLW = 0.1 NVR = 29
XU3        12 20  VOFFS_INA302A3
+ PARAMS: VOFF = 75u
XU4        VDD VSS 22 21 GNDF  PSRR_INA302A3
+ PARAMS: PSRRP = 140 FPSRRP = 2 PSRRN = 140 FPSRRN = 2
XU5        21 13 GNDF  CMRR_INA302A3
+ PARAMS: CMRR = 120 FCMRR = 2
XU6        12 13 VDD VSS  IBIAS_INA302A3
+ PARAMS: IBIASP = 1p IBIASN = 1p
XU7        VDD VSS  IQ_INA302A3
+ PARAMS: IQQ = 640u
XU8        VDD VSS 12 13 14 15 GNDF  CMR_INA302A3
+ PARAMS: VMAX = 0 VMIN = 0
XU9        14 15 11 GNDF  GBW_SLEW_SE_INA302A3
+ PARAMS: AOL = 120 GBW = 30.5MEG SRP = 4MEG SRN = 4MEG IT = 1M
XU10        11 10 GNDF  TF_INA302A3
XU11        VDD VSS 10 9 VIMON GNDF  VCLAMP_W_CLAW_INA302A3
+ PARAMS: VMAXIO = 0.05 VMINIO = 0.015
XU12        9 7 GNDF  ZOUT_INA302A3
XU13        7 VO VIMON  OUT_CURRENT_CLAMP_INA302A3
+ PARAMS: IMAX = 10m IMIN = 10m
XU14        VDD VSS VIMON  ILOAD_INA302A3
XU0        VDD VSS GNDF GND_FLOAT_INA302A3
.ENDS
*$
*
.SUBCKT INPUT_INA302A3   VIP  VIN  VOP  VON  GNDF 
+ PARAMS: RICM = 1G RIDM = 10K CICM = 100F  CIDM = 100F
V1          VIP VOP 0
V2          VIN VON 0
C1          VOP GNDF {CICM} 
C2          VON GNDF {CICM}
C3          VOP VON {CIDM}
G1          VOP GNDF VALUE =  {V(VOP,GNDF)/RICM}
G2          VON GNDF VALUE = {V(VON,GNDF)/RICM} 
G3          VOP VON VALUE = {V(VOP,VON)/RIDM} 
.ENDS
*$
*
.SUBCKT VNOISE_INA302A3  1 2 
+ PARAMS: NLF = 10 FLW = 4  NVR = 4.6
.PARAM GLF={PWR(FLW,0.25)*NLF/1164}
.PARAM RNV={1.184*PWR(NVR,2)}
.MODEL DVN D KF={PWR(FLW,0.5)/1E11} IS=1.0E-16
I1 0 7 10E-3
I2 0 8 10E-3
D1 7 0 DVN
D2 8 0 DVN
E1 3 6 7 8 {GLF}
R1 3 0 1E9
R2 3 0 1E9
R3 3 6 1E9
E2 6 4 5 0 10
R4 5 0 {RNV}
R5 5 0 {RNV}
R6 3 4 1E9
R7 4 0 1E9
E3 1 2 3 4 1
C1 1 0 1E-15
C2 2 0 1E-15
C3 1 2 1E-15
.ENDS
*$
*
.SUBCKT VOFFS_INA302A3 VP  VN 
+ PARAMS: VOFF = 0
V1  VP  VN {VOFF}
.ENDS
*$
*
.SUBCKT PSRR_INA302A3   VDD  VSS  VI  VO  GNDF 
+ PARAMS: PSRRP = 130 FPSRRP = 1.6
+ PSRRN = 130 FPSRRN = 1.6
.PARAM PI = 3.141592
.PARAM RPSRRP = 1
.PARAM GPSRRP = {PWR(10,-PSRRP/20)/RPSRRP}
.PARAM LPSRRP = {RPSRRP/(2*PI*FPSRRP)}
.PARAM RPSRRN = 1
.PARAM GPSRRN = {PWR(10,-PSRRN/20)/RPSRRN}
.PARAM LPSRRN = {RPSRRN/(2*PI*FPSRRN)}
G1  GNDF 1 VDD GNDF {GPSRRP}
R1  1 2 {RPSRRP}
L1  2 GNDF {LPSRRP}
G2  GNDF 3 VSS GNDF {GPSRRN}
R2  3 4 {RPSRRN}
L2  4 GNDF {LPSRRN}
E1  VO VI VALUE = {V(1,GNDF) + V(3,GNDF)}
C3  VDD VSS 10P
.ENDS
*$
*
.SUBCKT CMRR_INA302A3   VI  VO  GNDF PARAMS: CMRR = 130 FCMRR = 1.6K
.PARAM PI = 3.141592
.PARAM RCMRR = 1
.PARAM GCMRR = {PWR(10,-CMRR/20)/RCMRR}
.PARAM LCMRR = {RCMRR/(2*PI*FCMRR)}
G1  GNDF 1 VI GNDF {GCMRR}
R1  1 2 {RCMRR}
L1  2 GNDF {LCMRR}
E1  VI VO 1 GNDF 1
.ENDS
*$
*
.SUBCKT IBIAS_INA302A3 VIP  VIM  VDD  VSS
+ PARAMS: IBIASP = 1e-12 IBIASN = 1e-12
IBP  VDD  VIP  {IBIASP}
IBN  VSS  VIM  {IBIASN}
.ENDS
*$
*
.SUBCKT IQ_INA302A3  VDD VSS
+ PARAMS: IQQ = 1M  IOFF = 1P
G1 VDD VSS VALUE = {IQQ + IOFF*0}
.ENDS
*$
*
.SUBCKT CMR_INA302A3   VDD  VSS  VIP  VIM  VOP VOM  GNDF 
+ PARAMS: VMAX = 0 VMIN = 0
ECLAMPP  VOP GNDF VALUE = {LIMIT(V(VIP,GNDF),V(VDD,GNDF) - VMAX, V(VSS,GNDF) + VMIN)}
ECLAMPM  VOM GNDF VALUE = {LIMIT(V(VIM,GNDF),V(VDD,GNDF) - VMAX, V(VSS,GNDF) + VMIN)}
.ENDS
*$
*
.SUBCKT GBW_SLEW_SE_INA302A3  VIP  VIM  VO  GNDF 
+ PARAMS: Aol = 120  GBW = 3Meg  SRP = 2Meg  SRN = 2Meg IT = 1M
.PARAM PI = 3.141592
.PARAM IP = {IF(SRP <= SRN,IT,IT*(SRP/SRN))}
.PARAM IN = {IF(SRN <= SRP,-IT,-IT*(SRN/SRP))}
.PARAM Cc = {IF(SRP <= SRN,IT/SRP,IT/SRN)}
.PARAM fp = {GBW/PWR(10,Aol/20)}
.PARAM Rc = {1/(2*PI*Cc*fp)}
.PARAM Gc = {PWR(10,Aol/20)/Rc}
G1          GNDF VO VALUE = {IF(V(VIP,VIM) >= 200M,IP,IF(V(VIP,VIM) <= -200M,IN,Gc*V(VIP,VIM)))}
C1          VO GNDF {Cc}
R1          VO GNDF {Rc}
.ENDS
*$
*
.SUBCKT  TF_INA302A3  VI  VO  GNDF
+ PARAMS: A = 1
E1    VO  GNDF  VI  GNDF  {A}
.ENDS
*$
*
.SUBCKT VCLAMP_W_CLAW_INA302A3  VDD  VSS  VI  VO VIMON  GNDF
+ PARAMS: VMAXIO = 0 VMINIO = 0
EPCLIP	VDD_CLP 0  VALUE = 
+ {IF(0 <= + V(VIMON) & V(VIMON) <= 
+ 2.25M,V(VDD,GNDF) - 131.1111*V(VIMON) - 0 - VMAXIO,
+  IF(2.25M < V(VIMON) & V(VIMON) <= 
+ 4.76M,V(VDD,GNDF) - 121.5139*V(VIMON) - 21.5936M - VMAXIO,
+  IF(4.76M < V(VIMON) & V(VIMON) <= 
+ 6.56M,V(VDD,GNDF) - 222.2222*V(VIMON) + 457.7778M - VMAXIO,
+  IF(6.56M < V(VIMON) & V(VIMON) <= 
+ 8M,V(VDD,GNDF) - 625*V(VIMON) + 3.1 - VMAXIO,
+  IF(8M < V(VIMON) & V(VIMON) < 
+ 9M,V(VDD,GNDF) - 900*V(VIMON) + 5.3 - VMAXIO,
+  IF(9M < V(VIMON) & V(VIMON) < 
+ 10.1M,V(VDD,GNDF) - 1000*V(VIMON) + 6.2 - VMAXIO,V(VDD,GNDF) - VMAXIO))))))}
ENCLIP	VSS_CLP 0  VALUE = {IF(0 >= V(VIMON) & V(VIMON) >= 
+ -2.25M,V(VSS,GNDF) - 132*V(VIMON) + VMINIO,
+  IF(-2.25M > V(VIMON) & V(VIMON) >= 
+ -4.76M,V(VSS,GNDF) - 159.3625*V(VIMON) - 61.5657M + VMINIO,
+  IF(-4.76M > V(VIMON) & V(VIMON) >= 
+ -6.56M,V(VSS,GNDF) - 222.2222*V(VIMON) - 360.7778M + VMINIO,
+  IF(-6.56M > V(VIMON) & V(VIMON) >= 
+ -8M,V(VSS,GNDF) - 625*V(VIMON) - 3.003 + VMINIO,
+  IF(-8M > V(VIMON) & V(VIMON) >= 
+ -9M,V(VSS,GNDF) - 900*V(VIMON) - 5.203 + VMINIO,
+  IF(-9M > V(VIMON) & V(VIMON) > 
+ -10.1M,V(VSS,GNDF) - 1105*V(VIMON) - 7 + VMINIO,V(VSS,GNDF) + VMINIO))))))}
ECLAMP  VO GNDF VALUE = {LIMIT(V(VI,GNDF), V(VDD_CLP), V(VSS_CLP))}
.ENDS
*$
*
.SUBCKT  ZOUT_INA302A3  VI  VO  GNDF
+ PARAMS: RO = 50
G1    GNDF  VO  VI  GNDF  {1/RO}
G2    VO  GNDF  VALUE = {V(VO,GNDF)/RO}
.ENDS
*$
*
.SUBCKT OUT_CURRENT_CLAMP_INA302A3  IN  OUT  VIMON
+PARAMS: RSER = 1 IMAX = 10M  IMIN = 10M
HSENS  VIMON 0 VSENS 1
VSENS  OUTy OUT  0
GRESP  OUTx OUTy VALUE = {LIMIT(V(OUTx,OUT)/RSER,IMAX,-IMIN)}
GRESN  IN OUTx VALUE = {-V(IN,OUTx)/RSER}
.ENDS
*$
*
.SUBCKT ILOAD_INA302A3  VDD VSS VIMON
G1 VDD 0 VALUE = {IF(V(VIMON) >= 0,V(VIMON),0)}
G2 0 VSS VALUE = {IF(V(VIMON) < 0,V(VIMON),0)}
.ENDS
*$
*
.SUBCKT GND_FLOAT_INA302A3  VDD VSS GNDF 
EGNDF  GNDF 0 VALUE = {(V(VDD)+V(VSS))*0.5}
.ENDS
*$
*
.SUBCKT CONTROL_INA302A3 A B C OUT VCC VEE
EGNDF GNDF 0 VALUE = {0.5*(V(VCC) + V(VEE))}
EA NA GNDF VALUE = {0.5*(1 + SGN(V(A,GNDF)))}
EB NB GNDF VALUE = {0.5*(1 + SGN(V(B,GNDF)))}
EC NC GNDF VALUE = {0.5*(1 - SGN(V(C,GNDF)))}
EABnotC NABnotC GNDF VALUE = {V(NA,GNDF)*V(NB,GNDF)*V(NC,GNDF)}
EOUT OUT VEE VALUE = {V(VCC,VEE)*V(NABnotC,GNDF) + V(VEE,VEE)*(1 - V(NABnotC,GNDF))}
.ENDS
*$
*
.SUBCKT LIMIT_I_INA302A3 IN OUT VC1 VC2 VCC VEE
.PARAM m = -180u
.PARAM b = 80u
GOUT IN OUT VALUE = {IF(V(VC1,VC2) >= 0.1,80u,0)}
.ENDS
*$
*