*$
* LM10524
*****************************************************************************
* (C) Copyright 2013 Texas Instruments Incorporated. All rights reserved.                                            
*****************************************************************************
** This model is designed as an aid for customers of Texas Instruments.
** TI and its licensors and suppliers make no warranties, either expressed
** or implied, with respect to this model, including the warranties of 
** merchantability or fitness for a particular purpose.  The model is
** provided solely on an "as is" basis.  The entire risk as to its quality
** and performance is with the customer
*****************************************************************************
*
* This model is subject to change without notice. Texas Instruments
* Incorporated is not responsible for updating this model.
*
*****************************************************************************
*
** Released by: WEBENCH Design Center, Texas Instruments Inc.
* Part: LM10524
* Date: 20SEP2013
* Model Type: TRANSIENT
* Simulator: PSPICE
* Simulator Version: 16.2.0.p001
* EVM Order Number: LM10524 EVM
* EVM Users Guide: SLPT029
* Datasheet: SNVS986 –AUGUST 2013
*
* Model Version: Final 1.00
*
*****************************************************************************
*
* Updates:
*
* Final 1.00
* Release to Web.
*
******************************************************************************
.SUBCKT LM10524_TRANS B1_EN B2_EN COMP_THR DEVSLP DEVSLP_CTRL DEVSLP_OVR1 DEVSLP_OVR2
+  FB1 FB2 FB3 GND IRQ POWERUP_MODE PWR_OK SLEEP_EN SW_B1 SW_B2 SW_B3 VCOMP
+  VIN_IO  
V_V30         VO3 GND {VOUT3}
R_R30         N17386216 NO_CLK_B2  1  
V_V35         N17489722 GND 0
X_U93         RAMP N17462407 d_d1 PARAMS:
E_ABM23         N163660771 0 VALUE { if(V(EN_SLEEP) >0.5,1,0)    }
E_ABM3         DELAY 0 VALUE { if(V(N16655720) >0.5,1,0)    }
X_S1    START GND N16279721 GND CONTROL_S1 
C_C31         GND NO_CLK_B2  1n  TC=0,0 
E_ABM52         N17462188 0 VALUE { if ( V(N17462380)>0.5, V(RAMP),0)    }
R_R35         N17462337 RESET3  1  
R_R32         N17406473 EN_CLK  1  
E_ABM49         CLK2 0 VALUE { (V(RESET2) * V(VIN_IO))    }
E_ABM46         N17386216 0 VALUE { if (V(N17384398) >0.5, 1, 0)    }
E_ABM5         N16676750 0 VALUE { if(V(START) >0.5,1,0)    }
V_V25         N17462892 GND 1.55
C_C33         GND EN_CLK  1n  TC=0,0 
C_C36         GND RESET3  1n  
E_ABM16         EN_B2 0 VALUE { if(V(N16314258) >0.5,1,0)    }
R_R6         SLEEP_MODE N16295543  1 TC=0,0 
E_ABM18         N16612328 0 VALUE { if(V(VCOMP)
+  >V(COMP_THR)-(60m+HYS_DOUBLE*60m)*V(A),1,0)    }
X_U31         N16299314 EN_B2 d_d1 PARAMS:
X_U96         PFM1 PFMB1 INV_BASIC_GEN PARAMS: VDD=1 VSS=0 VTHRESH=500E-3
X_U16         A A_BAR INV_BASIC_GEN PARAMS: VDD=1 VSS=0 VTHRESH=500E-3
E_ABM24         PWR_OK 0 VALUE { (V(N16313169) * V(VIN_IO))    }
X_U94         Q2 N17462154 one_shot PARAMS:  T=20  
E_ABM2         OV 0 VALUE { if(V(VIN_IO) >5.7-100m*V(OV),1,0)    }
E_ABM48         N17406473 0 VALUE { if (V(N17405669) >0.5, 1, 0)    }
C_C41         GND N17559179  1n  
X_U13         N16279721 NO_SLEEP N16655720 AND2_BASIC_GEN PARAMS: VDD=1 VSS=0
+  VTHRESH=500E-3
C_C40         GND N17553759  1n  
C_C8         GND N16279721  0.0216  TC=0,0 
R_U34_R42         U34_N16779542 U34_EN_BYP  1  
X_U34_S8    U34_N16779291 GND U34_N16779289 GND TOPLEVEL_U34_S8 
X_U34_U35         U34_N16779395 U34_N16779389 U34_N16779394 N16779393
+  srlatchrhp_basic_gen PARAMS: VDD=1 VSS=0 VTHRESH=0.5
E_U34_ABM57         U34_N16779542 0 VALUE { if (V(U34_N16779540)>0.5,1,0)    }
X_U34_U50         U34_FB U34_N16779398 U34_N16779389 COMP_BASIC_GEN PARAMS:
+  VDD=1 VSS=0 VTHRESH=0.5
E_U34_E2         U34_VOUT GND VO3 GND 1
X_U34_U73         U34_IL_0 U34_N16779432 U34_1 N16779434 srlatchrhp_basic_gen
+  PARAMS: VDD=1 VSS=0 VTHRESH=0.5
C_U34_C8         U34_N16779465 GND  10p  TC=0,0 
X_U34_S6    U34_N16779307 GND U34_RAMP GND TOPLEVEL_U34_S6 
X_U34_U67         U34_N16779386 U34_FPWM_B U34_N16779322 AND2_BASIC_GEN PARAMS:
+  VDD=1 VSS=0 VTHRESH=500E-3
X_U34_U52         U34_N16779372 U34_FB U34_N16779342 COMP_BASIC_GEN PARAMS:
+  VDD=1 VSS=0 VTHRESH=0.5
C_U34_C18         GND U34_LOOP_DRIVE  20n  TC=0,0 
X_U34_U46         U34_N16779397 PFM3 U34_N16779292 AND2_BASIC_GEN PARAMS: VDD=1
+  VSS=0 VTHRESH=500E-3
C_U34_C9         GND U34_PFM_IMOD  1n  TC=0,0 
C_U34_C41         GND U34_N16779537  1n  TC=0,0 
X_U34_U57         CLK3 EN_B3 U34_N16779320 AND2_BASIC_GEN PARAMS: VDD=1 VSS=0
+  VTHRESH=500E-3
X_U34_S16    U34_NO_SW_B GND U34_N16779502 U34_N16779332 TOPLEVEL_U34_S16 
X_U34_U34         U34_N16779289 VIN_IO d_d1 PARAMS:
C_U34_C12         0 U34_N16779420  1m  TC=0,0 
E_U34_ABM56         U34_N16779535 0 VALUE { if (V(VIN_IO)<3.1 &
+  V(VIN_IO)>2.6,1,0)    }
E_U34_ABM14         U34_N16779567 0 VALUE { IF(V(U34_IL) > V(U34_N16779417)  ,
+  1,0)    }
C_U34_C13         0 U34_N16779417  1n  TC=0,0 
R_U34_R44         U34_N16779424 U34_N16779422  1  
X_U34_U61         GND U34_RAMP d_d1 PARAMS:
E_U34_ABM21         U34_N16779432 0 VALUE { IF(V(U34_IL) > {Ipfm} ,1,0)    }
X_U34_U60         U34_N16779320 U34_PFM_DIS U34_CLK AND2_BASIC_GEN PARAMS:
+  VDD=1 VSS=0 VTHRESH=500E-3
X_U34_U49         U34_N16779373 U34_N16779449 U34_N16779375 N16779377
+  srlatchrhp_basic_gen PARAMS: VDD=1 VSS=0 VTHRESH=0.5
E_U34_ABM22         U34_PFM_LEAVE 0 VALUE { IF(V(U34_N16779340) > 100m ,1,0)   
+  }
R_U34_R12         U34_IL_0 U34_N167801690  1 TC=0,0 
X_U34_U77         U34_N16779524 NO_SW U34_N16779518 AND2_BASIC_GEN PARAMS:
+  VDD=1 VSS=0 VTHRESH=500E-3
R_U34_R38         U34_N16779519 U34_NO_SW_B  1  
R_U34_R40         U34_N16779322 PFM3  1  
E_U34_ABM9         U34_N16779404 0 VALUE { V(U34_VOUT)*1.008    }
C_U34_C40         GND PFM3  1n  TC=0,0 
X_U34_U38         U34_PFM_DC U34_N16779349 d_d1 PARAMS:
X_U34_U78         U34_SS N17489722 U34_N16779534 AND2_BASIC_GEN PARAMS: VDD=1
+  VSS=0 VTHRESH=500E-3
C_U34_C15         0 U34_N16779486  1n  TC=0,0 
X_U34_U48         U34_N16779404 U34_FB U34_N16779395 COMP_BASIC_GEN PARAMS:
+  VDD=1 VSS=0 VTHRESH=0.5
X_U34_U51         U34_1 U34_N16779394 U34_N16779397 AND2_BASIC_GEN PARAMS:
+  VDD=1 VSS=0 VTHRESH=500E-3
E_U34_ABM55         U34_N16779519 0 VALUE { if (V(U34_N16779518) >0.5, 1, 0)   
+  }
R_U34_R45         U34_N16779443 U34_N16779493  1  
C_U34_C14         0 U34_N16779340  1n  TC=0,0 
X_U34_S18    U34_EN_BYP GND SW_B3 U34_N16779502 TOPLEVEL_U34_S18 
X_U34_U74         U34_N16779493 U34_N16779486 U34_N16779489 U34_N16779424
+  srlatchshp_basic_gen PARAMS: VDD=1 VSS=0 VTHRESH=0.5
X_U34_U45         U34_N16779488 U34_N16779567 U34_N16779443 OR2_BASIC_GEN
+  PARAMS: VDD=1 VSS=0 VTHRESH=500E-3
E_U34_ABM7         U34_N16779371 0 VALUE { IF(V(U34_IL) > {Imode} , 1,0)    }
X_U34_S15    U34_DIS GND SW_B3 GND TOPLEVEL_U34_S15 
X_U34_S5    U34_N16779371 GND U34_PFM_IMOD GND TOPLEVEL_U34_S5 
R_U34_R14         U34_N16779331 U34_N16779417  1  
X_U34_U41         U34_CLK U34_N16779341 N16779348 U34_N16779349
+  srlatchrhp_basic_gen PARAMS: VDD=1 VSS=0 VTHRESH=0.5
X_U34_U42         U34_CLK U34_N16779463 N16779459 U34_N16779462
+  srlatchrhp_basic_gen PARAMS: VDD=1 VSS=0 VTHRESH=0.5
X_U34_U75         PWR_OK U34_N16779527 U34_N16779524 AND2_BASIC_GEN PARAMS:
+  VDD=1 VSS=0 VTHRESH=500E-3
X_U34_U55         U34_N16779422 U34_PFM_DIS U34_N16779572 AND2_BASIC_GEN
+  PARAMS: VDD=1 VSS=0 VTHRESH=500E-3
R_U34_R7         U34_N16779349 U34_PFM_DC  23088 TC=0,0 
E_U34_ABM6         U34_IL_0 0 VALUE { IF(V(U34_IL) < 0.001 , 1,0)    }
X_U34_S17    U34_NO_SW_B GND VO3 U34_N16779502 TOPLEVEL_U34_S17 
X_U34_U66         BK3FPWM U34_FPWM_B INV_BASIC_GEN PARAMS: VDD=1 VSS=0
+  VTHRESH=500E-3
C_U34_C11         GND U34_N16779341  1n  TC=0,0 
R_U34_R15         U34_IL U34_N16779340  1k  
R_U34_R9         U34_N16779357 U34_PFM_IMOD  23088 TC=0,0 
E_U34_ABM13         U34_N16779372 0 VALUE { V(U34_VOUT) * 0.98    }
R_U34_R8         U34_N16779465 U34_IL  1 TC=0,0 
V_U34_V13         U34_N16779357 GND 1
X_U34_U56         PFM3 U34_PFM_DIS INV_BASIC_GEN PARAMS: VDD=1 VSS=0
+  VTHRESH=500E-3
X_U34_U58         U34_N16779375 EN_B3 U34_N16779386 AND2_BASIC_GEN PARAMS:
+  VDD=1 VSS=0 VTHRESH=500E-3
E_U34_E1         U34_FB GND FB3 GND 1
C_U34_C42         GND U34_EN_BYP  1n  TC=0,0 
C_U34_C7         GND U34_PFM_DC  1n  TC=0,0 
R_U34_R13         U34_N16779388 U34_N16779420  1 TC=0,0 
E_U34_ABM17         U34_N16779388 0 VALUE { if (V(EN_B3) >0.5 ,1,0)    }
X_U34_U62         U34_N16779317 U34_EN_B U34_SS N16779318 srlatchrhp_basic_gen
+  PARAMS: VDD=1 VSS=0 VTHRESH=0.5
X_U34_U54         U34_N16779342 U34_N16779342 U34_N16779449 OR2_BASIC_GEN
+  PARAMS: VDD=1 VSS=0 VTHRESH=500E-3
E_U34_ABM16         U34_N16779331 0 VALUE { if
+  (V(U34_N16779420)<35m,70m,if(V(U34_N16779420)>35m & V(U34_N16779420)<
+  228m,140m,if(V(U34_N16779420)>228m & V(U34_N16779420)<
+  400m,280m,if(V(U34_N16779420)>400m & V(U34_N16779420)<
+  535m,560m,V(N17462947)))))	    }
R_U34_R10         U34_N16779489 U34_GATE_RAMP_DIS  500 TC=0,0 
E_U34_ABM2         U34_N16779488 0 VALUE { IF(V(U34_RAMP) > 1.65 , 1,0)    }
R_U34_R43         U34_CLK U34_N16779486  1  
X_U34_U64         U34_N16779342 U34_N16779317 INV_BASIC_GEN PARAMS: VDD=1 VSS=0
+  VTHRESH=500E-3
R_U34_R41         U34_N16779534 U34_N16779537  1  
X_U34_U63         EN_B3 U34_EN_B INV_BASIC_GEN PARAMS: VDD=1 VSS=0
+  VTHRESH=500E-3
X_U34_U33         GND U34_N16779289 d_d1 PARAMS:
X_U34_U79         U34_N16779537 U34_N16779535 U34_N16779540 AND2_BASIC_GEN
+  PARAMS: VDD=1 VSS=0 VTHRESH=500E-3
C_U34_C16         0 U34_N16779422  1n  TC=0,0 
R_U34_R39         PWR_OK GND  1k  
R_U34_R16         U34_N16779572 U34_LOOP_DRIVE  1 TC=0,0 
X_U34_U59         U34_N16779460 EN_B3 U34_N16779321 AND2_BASIC_GEN PARAMS:
+  VDD=1 VSS=0 VTHRESH=500E-3
R_U34_EA_Rm         GND U34_EA_EA_L1  1Meg TC=0,0 
R_U34_EA_R4         U34_EA_EA_L3 U34_EA_N167523030  9k TC=0,0 
E_U34_EA_E1         U34_EA_N01070 GND U34_EA_EA_L1 GND 1
R_U34_EA_R8         U34_EA_EA_L1 U34_EA_N167522030  10  
X_U34_EA_U1         U34_EA_N16786134 U34_EA_N167522030 d_d1 PARAMS:
X_U34_EA_U47         PFM3 U34_EN_B U34_EA_N16787061 OR2_BASIC_GEN PARAMS: VDD=1
+  VSS=0 VTHRESH=500E-3
R_U34_EA_R2         GND U34_EA_N00424  15k TC=0,0 
V_U34_EA_V1         U34_EA_N16786134 GND -8.2
C_U34_EA_C2         U34_EA_N00424 U34_EA_EA_L1  1290p  TC=0,0 
X_U34_EA_S1    U34_EA_N16787061 GND U34_EA_EA_L1 U34_EA_N16787568
+  EA_to_RAMP_U34_EA_S1 
V_U34_EA_V2         U34_EA_N16787568 GND -1
G_U34_EA_G1         GND U34_RAMP U34_EA_EA_L3 GND 100u
G_U34_EA_G2         U34_RAMP GND VIN_IO GND -1.66u
C_U34_EA_C3         U34_EA_N167523030 U34_EA_N01798  65p  TC=0,0 
R_U34_EA_R5         GND U34_EA_EA_L3  1k TC=0,0 
G_U34_EA_ABMI1         GND U34_EA_EA_L1 VALUE {
+  ((((V(VIN_IO)*0.90m+0.25m))*((V(U34_FB)-V(U34_VOUT)))))    }
C_U34_EA_C1         GND U34_EA_EA_L2  20p  TC=0,0 
R_U34_EA_R7         GND U34_RAMP  1meg TC=0,0 
R_U34_EA_R6         U34_EA_EA_L3 U34_EA_N01798  100k TC=0,0 
E_U34_EA_E2         U34_EA_N01798 GND U34_EA_EA_L2 GND 1
R_U34_EA_R3         U34_EA_N01070 U34_EA_EA_L2  1k TC=0,0 
C_U34_C10         GND U34_GATE_RAMP_DIS  1p  TC=0,0 
X_U34_S7    U34_N16779321 0 VIN_IO U34_N16779289 TOPLEVEL_U34_S7 
X_U34_U44         U34_N16779460 U34_N16779462 U34_N16779291 OR2_BASIC_GEN
+  PARAMS: VDD=1 VSS=0 VTHRESH=500E-3
C_U34_C39         GND U34_NO_SW_B  1n  TC=0,0 
X_U34_U65         U34_IL_0 U34_FPWM_B U34_N16779463 AND2_BASIC_GEN PARAMS:
+  VDD=1 VSS=0 VTHRESH=500E-3
C_U34_C17         0 U34_N16779493  1n  TC=0,0 
X_U34_S19    U34_EN_BYP GND VIN_IO SW_B3 TOPLEVEL_U34_S19 
C_U34_Cramp         GND U34_RAMP  0.4p  TC=0,0 
X_U34_H1    U34_N16779289 U34_N16779332 U34_IL GND TOPLEVEL_U34_H1 
X_U34_U80         U34_GATE_RAMP_DIS U34_CLK U34_N16779307 OR2_BASIC_GEN PARAMS:
+  VDD=1 VSS=0 VTHRESH=500E-3
X_U34_U47         U34_LOOP_DRIVE U34_N16779292 U34_N16779460 OR2_BASIC_GEN
+  PARAMS: VDD=1 VSS=0 VTHRESH=500E-3
X_U34_U43         U34_N167801690 U34_N16779341 d_d1 PARAMS:
R_U34_R11         U34_IL_0 U34_N16779341  80 TC=0,0 
E_U34_ABM11         U34_N16779398 0 VALUE { V(U34_VOUT)*1.016    }
X_U34_U53         U34_PFM_DC U34_PFM_IMOD U34_N16779373 OR2_BASIC_GEN PARAMS:
+  VDD=1 VSS=0 VTHRESH=500E-3
X_U34_U76         U34_DIS U34_N16779527 INV_BASIC_GEN PARAMS: VDD=1 VSS=0
+  VTHRESH=500E-3
C_C11         GND RAMP  2p  
R_R29         N17347696 NO_CLK1  1  
X_U109         Q1 N17462672 one_shot PARAMS:  T=20  
R_R5         PWR_OK N16315563  1 TC=0,0 
V_V31         BK1FPWM GND {BK1FPWM}
C_C6         GND N16295543  2.886u  TC=0,0 
V_V23         N17462907 GND 2.1
C_C30         GND NO_CLK1  1n  TC=0,0 
X_U101         N17362666 SW_CLK N17405669 AND2_BASIC_GEN PARAMS: VDD=1 VSS=0
+  VTHRESH=500E-3
X_S3    START GND N16280823 GND CONTROL_S3 
R_R9         EN_B3 EN_B3_D  1k TC=0,0 
E_ABM53         CLK1 0 VALUE { (V(RESET1) * V(VIN_IO))    }
X_U2         N16280426 B2_EN N16298567 AND2_BASIC_GEN PARAMS: VDD=1 VSS=0
+  VTHRESH=500E-3
X_U95         N17462188 N17462183 N17462186 COMP_BASIC_GEN PARAMS: VDD=1 VSS=0
+  VTHRESH=0.5
E_ABM45         N17347696 0 VALUE { if (V(N17326246) >0.5, 1, 0)    }
C_C5         GND N16315563  0.216  TC=0,0 
X_U5         N16289711 N16289788 N16290236 DEVSLP N16290947 AND4_BASIC_GEN
+  PARAMS: VDD=1 VSS=0 VTHRESH=500E-3
X_U106         N17553759 N17559179 N17462522 Q_B srlatchrhp_basic_gen PARAMS:
+  VDD=1 VSS=0 VTHRESH=0.5
E_ABM9         N16372055 0 VALUE { if(V(N16295543) >0.5,1,0)    }
R_U27_R42         U27_N16779542 U27_EN_BYP  1  
X_U27_S8    U27_N16779291 GND U27_N16779289 GND TOPLEVEL_U27_S8 
X_U27_U35         U27_N16779395 U27_N16779389 U27_N16779394 N16779393
+  srlatchrhp_basic_gen PARAMS: VDD=1 VSS=0 VTHRESH=0.5
E_U27_ABM57         U27_N16779542 0 VALUE { if (V(U27_N16779540)>0.5,1,0)    }
X_U27_U50         U27_FB U27_N16779398 U27_N16779389 COMP_BASIC_GEN PARAMS:
+  VDD=1 VSS=0 VTHRESH=0.5
E_U27_E2         U27_VOUT GND VO1 GND 1
X_U27_U73         U27_IL_0 U27_N16779432 U27_1 N16779434 srlatchrhp_basic_gen
+  PARAMS: VDD=1 VSS=0 VTHRESH=0.5
C_U27_C8         U27_N16779465 GND  10p  TC=0,0 
X_U27_S6    U27_N16779307 GND U27_RAMP GND TOPLEVEL_U27_S6 
X_U27_U67         U27_N16779386 U27_FPWM_B U27_N16779322 AND2_BASIC_GEN PARAMS:
+  VDD=1 VSS=0 VTHRESH=500E-3
X_U27_U52         U27_N16779372 U27_FB U27_N16779342 COMP_BASIC_GEN PARAMS:
+  VDD=1 VSS=0 VTHRESH=0.5
C_U27_C18         GND U27_LOOP_DRIVE  20n  TC=0,0 
X_U27_U46         U27_N16779397 PFM1 U27_N16779292 AND2_BASIC_GEN PARAMS: VDD=1
+  VSS=0 VTHRESH=500E-3
C_U27_C9         GND U27_PFM_IMOD  1n  TC=0,0 
C_U27_C41         GND U27_N16779537  1n  TC=0,0 
X_U27_U57         CLK1 EN_B1 U27_N16779320 AND2_BASIC_GEN PARAMS: VDD=1 VSS=0
+  VTHRESH=500E-3
X_U27_S16    U27_NO_SW_B GND U27_N16779502 U27_N16779332 TOPLEVEL_U27_S16 
X_U27_U34         U27_N16779289 VIN_IO d_d1 PARAMS:
C_U27_C12         0 U27_N16779420  1m  TC=0,0 
E_U27_ABM56         U27_N16779535 0 VALUE { if (V(VIN_IO)<3.1 &
+  V(VIN_IO)>2.6,1,0)    }
E_U27_ABM14         U27_N16779567 0 VALUE { IF(V(U27_IL) > V(U27_N16779417)  ,
+  1,0)    }
C_U27_C13         0 U27_N16779417  1n  TC=0,0 
R_U27_R44         U27_N16779424 U27_N16779422  1  
X_U27_U61         GND U27_RAMP d_d1 PARAMS:
E_U27_ABM21         U27_N16779432 0 VALUE { IF(V(U27_IL) > {Ipfm} ,1,0)    }
X_U27_U60         U27_N16779320 U27_PFM_DIS U27_CLK AND2_BASIC_GEN PARAMS:
+  VDD=1 VSS=0 VTHRESH=500E-3
X_U27_U49         U27_N16779373 U27_N16779449 U27_N16779375 N16779377
+  srlatchrhp_basic_gen PARAMS: VDD=1 VSS=0 VTHRESH=0.5
E_U27_ABM22         U27_PFM_LEAVE 0 VALUE { IF(V(U27_N16779340) > 100m ,1,0)   
+  }
R_U27_R12         U27_IL_0 U27_N167801690  1 TC=0,0 
X_U27_U77         U27_N16779524 NO_SW U27_N16779518 AND2_BASIC_GEN PARAMS:
+  VDD=1 VSS=0 VTHRESH=500E-3
R_U27_R38         U27_N16779519 U27_NO_SW_B  1  
R_U27_R40         U27_N16779322 PFM1  1  
E_U27_ABM9         U27_N16779404 0 VALUE { V(U27_VOUT)*1.008    }
C_U27_C40         GND PFM1  1n  TC=0,0 
X_U27_U38         U27_PFM_DC U27_N16779349 d_d1 PARAMS:
X_U27_U78         U27_SS N17507598 U27_N16779534 AND2_BASIC_GEN PARAMS: VDD=1
+  VSS=0 VTHRESH=500E-3
C_U27_C15         0 U27_N16779486  1n  TC=0,0 
X_U27_U48         U27_N16779404 U27_FB U27_N16779395 COMP_BASIC_GEN PARAMS:
+  VDD=1 VSS=0 VTHRESH=0.5
X_U27_U51         U27_1 U27_N16779394 U27_N16779397 AND2_BASIC_GEN PARAMS:
+  VDD=1 VSS=0 VTHRESH=500E-3
E_U27_ABM55         U27_N16779519 0 VALUE { if (V(U27_N16779518) >0.5, 1, 0)   
+  }
R_U27_R45         U27_N16779443 U27_N16779493  1  
C_U27_C14         0 U27_N16779340  1n  TC=0,0 
X_U27_S18    U27_EN_BYP GND SW_B1 U27_N16779502 TOPLEVEL_U27_S18 
X_U27_U74         U27_N16779493 U27_N16779486 U27_N16779489 U27_N16779424
+  srlatchshp_basic_gen PARAMS: VDD=1 VSS=0 VTHRESH=0.5
X_U27_U45         U27_N16779488 U27_N16779567 U27_N16779443 OR2_BASIC_GEN
+  PARAMS: VDD=1 VSS=0 VTHRESH=500E-3
E_U27_ABM7         U27_N16779371 0 VALUE { IF(V(U27_IL) > {Imode} , 1,0)    }
X_U27_S15    U27_DIS GND SW_B1 GND TOPLEVEL_U27_S15 
X_U27_S5    U27_N16779371 GND U27_PFM_IMOD GND TOPLEVEL_U27_S5 
R_U27_R14         U27_N16779331 U27_N16779417  1  
X_U27_U41         U27_CLK U27_N16779341 N16779348 U27_N16779349
+  srlatchrhp_basic_gen PARAMS: VDD=1 VSS=0 VTHRESH=0.5
X_U27_U42         U27_CLK U27_N16779463 N16779459 U27_N16779462
+  srlatchrhp_basic_gen PARAMS: VDD=1 VSS=0 VTHRESH=0.5
X_U27_U75         PWR_OK U27_N16779527 U27_N16779524 AND2_BASIC_GEN PARAMS:
+  VDD=1 VSS=0 VTHRESH=500E-3
X_U27_U55         U27_N16779422 U27_PFM_DIS U27_N16779572 AND2_BASIC_GEN
+  PARAMS: VDD=1 VSS=0 VTHRESH=500E-3
R_U27_R7         U27_N16779349 U27_PFM_DC  23088 TC=0,0 
E_U27_ABM6         U27_IL_0 0 VALUE { IF(V(U27_IL) < 0.001 , 1,0)    }
X_U27_S17    U27_NO_SW_B GND VO1 U27_N16779502 TOPLEVEL_U27_S17 
X_U27_U66         BK1FPWM U27_FPWM_B INV_BASIC_GEN PARAMS: VDD=1 VSS=0
+  VTHRESH=500E-3
C_U27_C11         GND U27_N16779341  1n  TC=0,0 
R_U27_R15         U27_IL U27_N16779340  1k  
R_U27_R9         U27_N16779357 U27_PFM_IMOD  23088 TC=0,0 
E_U27_ABM13         U27_N16779372 0 VALUE { V(U27_VOUT) * 0.98    }
R_U27_R8         U27_N16779465 U27_IL  1 TC=0,0 
V_U27_V13         U27_N16779357 GND 1
X_U27_U56         PFM1 U27_PFM_DIS INV_BASIC_GEN PARAMS: VDD=1 VSS=0
+  VTHRESH=500E-3
X_U27_U58         U27_N16779375 EN_B1 U27_N16779386 AND2_BASIC_GEN PARAMS:
+  VDD=1 VSS=0 VTHRESH=500E-3
E_U27_E1         U27_FB GND FB1 GND 1
C_U27_C42         GND U27_EN_BYP  1n  TC=0,0 
C_U27_C7         GND U27_PFM_DC  1n  TC=0,0 
R_U27_R13         U27_N16779388 U27_N16779420  1 TC=0,0 
E_U27_ABM17         U27_N16779388 0 VALUE { if (V(EN_B1) >0.5 ,1,0)    }
X_U27_U62         U27_N16779317 U27_EN_B U27_SS N16779318 srlatchrhp_basic_gen
+  PARAMS: VDD=1 VSS=0 VTHRESH=0.5
X_U27_U54         U27_N16779342 U27_N16779342 U27_N16779449 OR2_BASIC_GEN
+  PARAMS: VDD=1 VSS=0 VTHRESH=500E-3
E_U27_ABM16         U27_N16779331 0 VALUE { if
+  (V(U27_N16779420)<35m,70m,if(V(U27_N16779420)>35m & V(U27_N16779420)<
+  228m,140m,if(V(U27_N16779420)>228m & V(U27_N16779420)<
+  400m,280m,if(V(U27_N16779420)>400m & V(U27_N16779420)<
+  535m,560m,V(N17462907)))))	    }
R_U27_R10         U27_N16779489 U27_GATE_RAMP_DIS  500 TC=0,0 
E_U27_ABM2         U27_N16779488 0 VALUE { IF(V(U27_RAMP) > 1.65 , 1,0)    }
R_U27_R43         U27_CLK U27_N16779486  1  
X_U27_U64         U27_N16779342 U27_N16779317 INV_BASIC_GEN PARAMS: VDD=1 VSS=0
+  VTHRESH=500E-3
R_U27_R41         U27_N16779534 U27_N16779537  1  
X_U27_U63         EN_B1 U27_EN_B INV_BASIC_GEN PARAMS: VDD=1 VSS=0
+  VTHRESH=500E-3
X_U27_U33         GND U27_N16779289 d_d1 PARAMS:
X_U27_U79         U27_N16779537 U27_N16779535 U27_N16779540 AND2_BASIC_GEN
+  PARAMS: VDD=1 VSS=0 VTHRESH=500E-3
C_U27_C16         0 U27_N16779422  1n  TC=0,0 
R_U27_R39         PWR_OK GND  1k  
R_U27_R16         U27_N16779572 U27_LOOP_DRIVE  1 TC=0,0 
X_U27_U59         U27_N16779460 EN_B1 U27_N16779321 AND2_BASIC_GEN PARAMS:
+  VDD=1 VSS=0 VTHRESH=500E-3
R_U27_EA_Rm         GND U27_EA_EA_L1  1Meg TC=0,0 
R_U27_EA_R4         U27_EA_EA_L3 U27_EA_N167523030  9k TC=0,0 
E_U27_EA_E1         U27_EA_N01070 GND U27_EA_EA_L1 GND 1
R_U27_EA_R8         U27_EA_EA_L1 U27_EA_N167522030  10  
X_U27_EA_U1         U27_EA_N16786134 U27_EA_N167522030 d_d1 PARAMS:
X_U27_EA_U47         PFM1 U27_EN_B U27_EA_N16787061 OR2_BASIC_GEN PARAMS: VDD=1
+  VSS=0 VTHRESH=500E-3
R_U27_EA_R2         GND U27_EA_N00424  15k TC=0,0 
V_U27_EA_V1         U27_EA_N16786134 GND -8.2
C_U27_EA_C2         U27_EA_N00424 U27_EA_EA_L1  1290p  TC=0,0 
X_U27_EA_S1    U27_EA_N16787061 GND U27_EA_EA_L1 U27_EA_N16787568
+  EA_to_RAMP_U27_EA_S1 
V_U27_EA_V2         U27_EA_N16787568 GND -1
G_U27_EA_G1         GND U27_RAMP U27_EA_EA_L3 GND 100u
G_U27_EA_G2         U27_RAMP GND VIN_IO GND -1.66u
C_U27_EA_C3         U27_EA_N167523030 U27_EA_N01798  65p  TC=0,0 
R_U27_EA_R5         GND U27_EA_EA_L3  1k TC=0,0 
G_U27_EA_ABMI1         GND U27_EA_EA_L1 VALUE {
+  ((((V(VIN_IO)*0.90m+0.25m))*((V(U27_FB)-V(U27_VOUT)))))    }
C_U27_EA_C1         GND U27_EA_EA_L2  20p  TC=0,0 
R_U27_EA_R7         GND U27_RAMP  1meg TC=0,0 
R_U27_EA_R6         U27_EA_EA_L3 U27_EA_N01798  100k TC=0,0 
E_U27_EA_E2         U27_EA_N01798 GND U27_EA_EA_L2 GND 1
R_U27_EA_R3         U27_EA_N01070 U27_EA_EA_L2  1k TC=0,0 
C_U27_C10         GND U27_GATE_RAMP_DIS  1p  TC=0,0 
X_U27_S7    U27_N16779321 0 VIN_IO U27_N16779289 TOPLEVEL_U27_S7 
X_U27_U44         U27_N16779460 U27_N16779462 U27_N16779291 OR2_BASIC_GEN
+  PARAMS: VDD=1 VSS=0 VTHRESH=500E-3
C_U27_C39         GND U27_NO_SW_B  1n  TC=0,0 
X_U27_U65         U27_IL_0 U27_FPWM_B U27_N16779463 AND2_BASIC_GEN PARAMS:
+  VDD=1 VSS=0 VTHRESH=500E-3
C_U27_C17         0 U27_N16779493  1n  TC=0,0 
X_U27_S19    U27_EN_BYP GND VIN_IO SW_B1 TOPLEVEL_U27_S19 
C_U27_Cramp         GND U27_RAMP  0.4p  TC=0,0 
X_U27_H1    U27_N16779289 U27_N16779332 U27_IL GND TOPLEVEL_U27_H1 
X_U27_U80         U27_GATE_RAMP_DIS U27_CLK U27_N16779307 OR2_BASIC_GEN PARAMS:
+  VDD=1 VSS=0 VTHRESH=500E-3
X_U27_U47         U27_LOOP_DRIVE U27_N16779292 U27_N16779460 OR2_BASIC_GEN
+  PARAMS: VDD=1 VSS=0 VTHRESH=500E-3
X_U27_U43         U27_N167801690 U27_N16779341 d_d1 PARAMS:
R_U27_R11         U27_IL_0 U27_N16779341  80 TC=0,0 
E_U27_ABM11         U27_N16779398 0 VALUE { V(U27_VOUT)*1.016    }
X_U27_U53         U27_PFM_DC U27_PFM_IMOD U27_N16779373 OR2_BASIC_GEN PARAMS:
+  VDD=1 VSS=0 VTHRESH=500E-3
X_U27_U76         U27_DIS U27_N16779527 INV_BASIC_GEN PARAMS: VDD=1 VSS=0
+  VTHRESH=500E-3
X_U110         N17462706 N17462683 N17462731 COMP_BASIC_GEN PARAMS: VDD=1 VSS=0
+  VTHRESH=0.5
E_ABM1         UVLO 0 VALUE { if(V(VIN_IO) >2.9-300m*V(UVLO),1,0)    }
X_U98         N17462186 N17462245 N17462250 Q2_B srlatchrhp_basic_gen PARAMS:
+  VDD=1 VSS=0 VTHRESH=0.5
X_U20         N16356535 N16356696 N16357307 OR2_BASIC_GEN PARAMS: VDD=1 VSS=0
+  VTHRESH=500E-3
R_R4         DELAY N16280823  1 TC=0,0 
X_U4         DEVSLP_OVR2 N16289788 INV_BASIC_GEN PARAMS: VDD=1 VSS=0
+  VTHRESH=500E-3
X_U8         N16284539 NO_SLEEP N16306926 AND2_BASIC_GEN PARAMS: VDD=1 VSS=0
+  VTHRESH=500E-3
V_V32         BK2FPWM GND {BK2FPWM}
X_U86         EN_B2 N17324141 INV_BASIC_GEN PARAMS: VDD=1 VSS=0 VTHRESH=500E-3
R_R13         EN_B2 EN_B2_D  1k TC=0,0 
X_U25         OV OV_B INV_BASIC_GEN PARAMS: VDD=1 VSS=0 VTHRESH=500E-3
X_U97         PFM2 PFMB2 INV_BASIC_GEN PARAMS: VDD=1 VSS=0 VTHRESH=500E-3
X_U107         N17551324 N174624700 INV_BASIC_GEN PARAMS: VDD=1 VSS=0
+  VTHRESH=500E-3
E_ABM8         N16315539 0 VALUE { if(V(N16315563) >0.5,1,0)    }
X_U99         N17462186 N17462245 INV_BASIC_GEN PARAMS: VDD=1 VSS=0
+  VTHRESH=500E-3
V_V27         N17462947 GND 3
X_U19         A_BAR N16354206 N16356696 AND2_BASIC_GEN PARAMS: VDD=1 VSS=0
+  VTHRESH=500E-3
X_U111         N17462731 N17462728 N17462755 Q1_B srlatchrhp_basic_gen PARAMS:
+  VDD=1 VSS=0 VTHRESH=0.5
X_U11         N16299314 NO_SLEEP N16307180 AND2_BASIC_GEN PARAMS: VDD=1 VSS=0
+  VTHRESH=500E-3
X_U32         N16280426 EN_B1 d_d1 PARAMS:
C_C4         GND N16280823  2.886m  TC=0,0 
E_ABM14         NO_SLEEP 0 VALUE { if(V(N16362245) >0.5,1,0)    }
X_U29         N16279721 N16676750 d_d1 PARAMS:
E_ABM15         EN_B1 0 VALUE { if(V(N16306926) >0.5,1,0)    }
C_C14         GND EN_B2_D  1n  TC=0,0 
X_U90         N17469253 N17362666 INV_BASIC_GEN PARAMS: VDD=1 VSS=0
+  VTHRESH=500E-3
X_S8    QB GND RAMP GND CONTROL_S8 
X_U89         PWR_OK NO_SW NO_CLK3 AND2_BASIC_GEN PARAMS: VDD=1 VSS=0
+  VTHRESH=500E-3
V_V33         BK3FPWM GND {BK3FPWM}
V_V28         VO1 GND {VOUT1}
X_U116         N17362136 NO_CLK4 N17469253 OR2_BASIC_GEN PARAMS: VDD=1 VSS=0
+  VTHRESH=500E-3
X_U92         N17359616 NO_CLK3 N17362136 OR2_BASIC_GEN PARAMS: VDD=1 VSS=0
+  VTHRESH=500E-3
X_S4    START GND N16299314 GND CONTROL_S4 
V_V108         N17462183 GND 0.6667
X_U112         N17462731 N17462728 INV_BASIC_GEN PARAMS: VDD=1 VSS=0
+  VTHRESH=500E-3
R_R12         EN_B1 EN_B1_D  1k TC=0,0 
X_U21         N16372055 N163712551 one_shot PARAMS:  T=14000000
R_R39         N17551324 N17553759  1  
R_R7         EN_B2 N16299314  1 TC=0,0 
R_R40         N174624700 N17559179  1  
E_ABM43         SW_CLK 0 VALUE { if (V(EN_B3_D) >0.5, 1, 0)    }
R_R33         N17462250 Q2  1  
C_C10         GND EN_B3_D  1n  TC=0,0 
V_V111         N17462683 GND 0.334
X_U23         N163660771 POWERUP_MODE one_shot PARAMS:  T=50000  
C_C13         GND EN_B1_D  1n  TC=0,0 
R_R34         N17462154 RESET2  1  
V_V24         N17507598 GND 1
V_V34         NO_SW GND {NO_SW}
X_U15         POWERUP_MODE N16290236 INV_BASIC_GEN PARAMS: VDD=1 VSS=0
+  VTHRESH=500E-3
X_U87         PFM3 EN_B3_D N17323620 N17324141 N17326246 AND4_BASIC_GEN PARAMS:
+  VDD=1 VSS=0 VTHRESH=500E-3
X_U88         PFM1 PFM2 PFM2 PFM3 N17335506 AND4_BASIC_GEN PARAMS: VDD=1 VSS=0
+  VTHRESH=500E-3
V_V109         N17462407 GND 1
R_R38         N17464452 NO_CLK4  1  
C_C7         GND N16299314  2.886m  TC=0,0 
R_R36         N17462755 Q1  1  
C_C34         GND Q2  1n  
X_U102         EN_B1_D PFMB1 N17426743 AND2_BASIC_GEN PARAMS: VDD=1 VSS=0
+  VTHRESH=500E-3
R_R1         N16676750 N16279721  1 TC=0,0 
E_ABM21         DEVSLP_CTRL 0 VALUE { (V(N16303312) * V(VIN_IO))    }
R_R3         EN_B1 N16280426  1 TC=0,0 
X_U26         N16612328 UVLO A AND2_BASIC_GEN PARAMS: VDD=1 VSS=0
+  VTHRESH=500E-3
X_U9         SLEEP_MODE N16303312 one_shot PARAMS:  T=2000  
C_C39         GND NO_CLK4  1n  TC=0,0 
E_ABM44         N17342787 0 VALUE { if (V(N17335506) >0.5, 1, 0)    }
E_ABM13         SLEEP_MODE 0 VALUE { if(V(N16291379) >0.5,1,0)    }
X_U33         N16280230 EN_B3 d_d1 PARAMS:
X_U22         N16372055 N163712551 N16373585 OR2_BASIC_GEN PARAMS: VDD=1 VSS=0
+  VTHRESH=500E-3
X_U85         EN_B1 N17323620 INV_BASIC_GEN PARAMS: VDD=1 VSS=0 VTHRESH=500E-3
X_U117         RAMP N17462435 N17551324 COMP_BASIC_GEN PARAMS: VDD=1 VSS=0
+  VTHRESH=0.5
C_C37         GND Q1  1n  
C_C35         GND RESET2  1n  
E_ABM55         N17464452 0 VALUE { if (V(N17464539) >0.5, 1, 0)    }
V_V29         VO2 GND {VOUT2}
X_U12         N16280823 NO_SLEEP N16658183 AND2_BASIC_GEN PARAMS: VDD=1 VSS=0
+  VTHRESH=500E-3
X_U6         N16290947 EN_SLEEP N16291379 AND2_BASIC_GEN PARAMS: VDD=1 VSS=0
+  VTHRESH=500E-3
X_U113         EN_B2 N17464526 INV_BASIC_GEN PARAMS: VDD=1 VSS=0 VTHRESH=500E-3
C_C3         GND N16280426  2.886m  TC=0,0 
R_R14         N17462522 QB  1  
R_R37         N17462672 RESET1  1  
X_U100         QB N17462337 one_shot PARAMS:  T=20  
R_R28         N17342787 NO_CLK2  1  
V_V26         N17526443 GND 0
E_ABM20         IRQ 0 VALUE { if (V(N16357307)>0.5,4,1)    }
X_U114         EN_B2 N17464530 INV_BASIC_GEN PARAMS: VDD=1 VSS=0 VTHRESH=500E-3
X_U91         NO_CLK1 NO_CLK2 N17359616 OR2_BASIC_GEN PARAMS: VDD=1 VSS=0
+  VTHRESH=500E-3
E_ABM17         N16313169 0 VALUE { if(V(N16307180) >0.5,1,0)    }
E_ABM22         SLEEP_EN 0 VALUE { (V(N16373585) * V(VIN_IO))    }
X_U14         N16315539 GND EN_SLEEP GND srlatchrhp_basic_gen PARAMS: VDD=1
+  VSS=0 VTHRESH=0.5
C_C38         GND RESET1  1n  
C_C15         GND QB  1n  
X_U104         EN_B1_D NO_CLK_B1 N17462383 AND2_BASIC_GEN PARAMS: VDD=1 VSS=0
+  VTHRESH=500E-3
C_C29         GND NO_CLK2  1n  TC=0,0 
X_S6    START GND N16280230 GND CONTROL_S6 
X_U115         PFM3 PFM1 N17464526 N17464530 N17464539 AND4_BASIC_GEN PARAMS:
+  VDD=1 VSS=0 VTHRESH=500E-3
X_U103         PFMB2 EN_B2_D N17384398 AND2_BASIC_GEN PARAMS: VDD=1 VSS=0
+  VTHRESH=500E-3
X_U10         N16298567 NO_SLEEP N16314258 AND2_BASIC_GEN PARAMS: VDD=1 VSS=0
+  VTHRESH=500E-3
R_R2         EN_B3 N16280230  1 TC=0,0 
R_R31         N17387393 NO_CLK_B1  1  
X_U17         N16354206 PB INV_BASIC_GEN PARAMS: VDD=1 VSS=0 VTHRESH=500E-3
X_U30         N16280823 DELAY d_d1 PARAMS:
X_U1         N16280230 B1_EN N16284539 AND2_BASIC_GEN PARAMS: VDD=1 VSS=0
+  VTHRESH=500E-3
X_S5    START GND N16280426 GND CONTROL_S5 
G_ABMII4         VIN_IO RAMP VALUE { if (V(N17462827) >0.5,4u,0)    }
X_U18         A PB N16356535 AND2_BASIC_GEN PARAMS: VDD=1 VSS=0 VTHRESH=500E-3
X_U108         EN_B2_D NO_CLK_B2 N17462380 AND2_BASIC_GEN PARAMS: VDD=1 VSS=0
+  VTHRESH=500E-3
E_ABM19         N16354206 0 VALUE { IF(POLARITY>0.5,0,1)    }
X_U7         SLEEP_EN N16362245 INV_BASIC_GEN PARAMS: VDD=1 VSS=0
+  VTHRESH=500E-3
E_ABM50         CLK3 0 VALUE { (V(RESET3) * V(VIN_IO))    }
C_C32         GND NO_CLK_B1  1n  TC=0,0 
R_U80_R42         U80_N16779542 U80_EN_BYP  1  
X_U80_S8    U80_N16779291 GND U80_N16779289 GND TOPLEVEL_U80_S8 
X_U80_U35         U80_N16779395 U80_N16779389 U80_N16779394 N16779393