* CIP: NDA is required as of 08/29/2019
*****************************************************************************
* PSpice Model Editor - Version 16.2.0
*$
* PSpice Model Editor - Version 16.2.0
* LM25061-1
*****************************************************************************
*  (C) Copyright 2012 Texas Instruments Incorporated. All rights reserved.
*****************************************************************************
** This model is designed as an aid for customers of Texas Instruments.
** TI and its licensors and suppliers make no warranties, either expressed
** or implied, with respect to this model, including the warranties of 
** merchantability or fitness for a particular purpose.  The model is
** provided solely on an "as is" basis.  The entire risk as to its quality
** and performance is with the customer
*****************************************************************************
*
** Released by: WEBENCH Design Center, Texas Instruments Inc.
* Part: LM25061-1
* Date: 8 MAR 2013
* Model Type: Transient
* Simulator: PSPICE
* Simulator Version: 16.2.0.s003
* EVM Order Number: AN-1946
* EVM Users Guide: SNVA387C June 29, 2009
* Datasheet: SNVS611D December 09, 2010 
*
* Model Version: Final 1.00
*
*****************************************************************************
*
* Updates:
*
* Final 1.00
* Release to Web.
*
******************************************************************************
.SUBCKT LM25061-1_TRANS SENSE VIN UVLO FB GND TIMER PWR PGD OUT GATE
+ PARAMS: Rpwr = 24.3K Rsense = 0.01
D3 VIN SENSE _D4_MOD 0.065 IC=0
.MODEL _D4_MOD D t_abs=27 N=1.054 TT=0.1ns VJ=0.6 M=1
GB1 GND GATE Value = { IF(V(SHUTDOWN) < 1.75 , 20u , 0)}
EB14 FBDET GND Value = { IF(V(FB) > 1.17 ,3.5 ,0)}
C5 FBDETX GND 1p
R1 FBDETX FBDET 1K
D2 SENSE VIN _D4_MOD 0.065 IC=0
D1 FB VDDINT1 _D1_MOD 1 IC=0
.MODEL _D1_MOD D t_abs=27 TT=0.1nS VJ=0.6 M=1
GB20 VDDINT1 FB Value = {IF (V(FBDETX) > 1.75 ,22u ,0)}
X1 VDDINT2 FBDETDLY VDDINT2 FBDETX SSWITCH_0
D9 PWR VDDINT1 _D1_MOD 1 IC=0
X7 FBDETDLY GND FBDETX GND SSWITCH_1
C6 FBDETDLY GND 10p
R2 SENSE OUT 1e6
EB21 NPG GND Value = {IF (V(FBDETDLY) > 1.75 ,3.5 ,0)}
VA GND ISUM DC=0
D5 64 TIMER _D1_MOD 1 IC=0
D6 TIMER VDDINT1 _D1_MOD 1 IC=0
V12 SENSEY SENSE DC=0 AC=0
D4 9 GATE _D1_MOD 1 IC=0
V5 9 GND DC=0.799V
V3 64 GND DC=0.673027V
GB22 TIMER GND Value ={IF (V(ITIMERFINISH) >1.75 ,2.5u ,0)}
D7 GATE 13 _D1_MOD 1 IC=0
V6 13 GND DC=18.949V
GB2 GATE GND Value ={IF(V(SHUTDOWN) > 1.75 , 2m , 0)}
VX GND 14 DC=0
GB3 GATE GND Value ={IF(I(VA) < 132u , I(VA) , 132u)}
V9 VIN ILIMREF DC=50m
GB4 ISUM GND Value ={IF(I(VX) > 0 , I(VX) , 0)}
G1 14 GND ILIMREF SENSEY 5.4E-2
GB6 GND PWR Value={IF(V(SHUTDOWN) < 1.75 , 15u , 0)}
V11 VDDINT1 GND DC=4.7V
EB5 ACTIVEILIM GND Value ={IF(I(VX) > 9u , 3.5 , 0)}
GB25 VDDINT1 TIMER Value={IF (V(ITIMERFINISH) > 1.75 ,0 ,5.5u)}
X2 PWR GND SHUTDOWN GND SSWITCH_2
GB26 TIMER GND Value={IF(V(ENDITIMER) > 1.75 ,2m ,0)}
D8 GND OUT _D1_MOD 1 IC=0
GB27 VDDINT1 TIMER Value ={IF(V(FTIMERON) > 1.75 ,82.5u ,0)}
*EB7 PFETLIM GND VALUE = {1.0* {RPWR}}
EB7 PFETLIM GND VALUE = = {{Rpwr}/{Rsense}/(2.32E5)}
*EB7 PFETLIM GND VALUE = = {{24300}/{0.01}/(2.32E5)}
R5 CBDET CBDETDLY 27.1K
GB11 GATE GND Value={IF(V(CBDETDLY) < 1.75 ,
+IF(V(ITPOR) < 1.75 , 0 , 260m),0)}
GB8 ISUM GND Value={IF(I(VY) > 0 ,I(VY) ,0)}
VY GND 25 DC=0
G2 25 GND PSENSE PFETLIM {4.5E-5}
EB9 ACTIVEPLIM GND Value={IF(I(VY) > 9u,3.5,0)}
EB10 PSENSE GND Value={(V(VIN,SENSE)/  {Rsense} )*V(SENSE,OUT)}
EB17 UVLODET GND Value={IF(V(UVLO) > 1.17 , 0, 3.5)}
C1 CBDETDLY GND 10p
EB12 CBDET GND Value={IF(V(VIN,SENSE) > 95m ,3.5 ,0)}
X3 VIN 32 ITPORDET COMPHYST_0
EB13 ACTIVE GND Value={IF(V(ACTIVEILIM)|V(ACTIVEPLIM)>1.75,
+ IF(V(SHUTDOWN)<1.75,3.5,0),0)}
V13 32 GND DC=2.6
EB15 SHUTDOWN GND Value={IF(V(ITPOR)<1.75,IF(V(UVLOCK)<1.75,
+ IF(V(TIMEOUT)<1.75,0,3.5),3.5),3.5)}
EB28 RESTART GND Value={IF(V(TIMER)<0.3,3.5,0)}
V15 VDDINT2 GND DC=3.5V
X8 TIMER 65 TIMERCHARGEDET COMPHYST_0
V8 65 GND DC=1.72
X9 VDDINT2 TIMERCHARGEBAR VDDINT2 TIMERCHARGEDET SSWITCH_3
X4 ITPORDLY GND ITPORDET GND SSWITCH_4
C2 ITPORDLY GND 144p
R6 VDDINT2 ITPORDLY 1e6
EB16 ITPOR GND Value={IF(V(ITPORDLY) < 1.75,3.5,0)}
C3 UVLODETX GND 1p
R7 UVLODETX UVLODET 1K
D10 GND UVLO _D1_MOD 1 IC=0
GB18 UVLO GND Value={IF(V(UVLODETX) > 1.75 , 20u, 0)}
X5 VDDINT2 UVLODETDLY VDDINT2 UVLODETX SSWITCH_5
X6 UVLODETDLY GND UVLODETX GND SSWITCH_3
C4 UVLODETDLY GND 12p
EB19 UVLOCK GND Value={IF(V(UVLODETDLY) > 1.75 ,0,3.5)}
X11 TIMERCHARGEBAR GND TIMERCHARGEDET GND SSWITCH_3
C7 TIMERCHARGEBAR GND 28.9p
EB29 TIMERCHARGE GND Value={IF(V(TIMERCHARGEBAR) < 1.75 ,3.5,0)}
EB30 TIMERISLOW GND Value={IF(V(RESTART) > 1.75,
+ IF(V(TIMERCHARGE) > 1.75 ,3.5,0),0)}
XNOR_A1 ITPOR 66 67 NOR2A_0
XA2 67 TIMERISLOW 66 NOR2A_0
XDA3 67 RESETTIMER INVERTERA_0
XA4 RESETTIMER 68 ITIMERALMFINISH NOR2A_0
XA5 ITIMERALMFINISH TIMERDISCH 68 NOR2A_0
XA6 TIMERCHARGE TIMERDISCH INVERTERA_0
XA7 RESETTIMER IHOLDOFF ITIMERFINISH NOR2A_0
XA8 ITIMERFINISH 69 IHOLDOFF NOR2A_0
XAN9 ITIMERALMFINISH TIMERISLOW 69 AND2A_0
E23 VINDET GND Value={IF(V(VIN) > 1.6,3.5, 0)}
E24 NOTPGD GND Value={IF(   ( V(NPG) > 1.75 | V(ITPOR) > 1.75
+ | V(SHUTDOWN) > 1.75) & (V(VINDET) > 1.75),3.5,0)}
X10 PGD GND NOTPGD GND SSWITCH_8
C8 ITIMERFINISH GND 1F
XOA10 RESETTIMER 70 ENDITIMER OR2A_0
XA11 ITIMERALMFINISH IHOLDOFF 70 AND2A_0
C9 ENDITIMER GND 1F
XA12 FAULTR 71 FSHUTDOWN NOR2A_0
XA13 FSHUTDOWN FAULTS 71 NOR2A_0
XA14 FSHUTDOWN RESETCOUNTER INVERTERA_0
XA15 TIMERISLOW UVLOCK 72 AND2A_0
XA16 72 RESETTIMER FAULTR OR2A_0
XA17 ITIMERFINISH TIMERDISCH FAULTS AND2A_0
XA18 FSHUTDOWN IHOLDOFF RUNNING NOR2A_0
XA19 RUNNING TIMEOUT INVERTERA_0
C10 FTIMERON GND 1F
XA20 FSHUTDOWN 73 FTIMERON NOR2A_0
XA21 RUNNING ACTIVE 73 NAND2A_0
C11 TIMEOUT GND 1F
.ENDS
*$
* PSpice Model Editor - Version 16.2.0
* LM25061-1
*****************************************************************************
*  (C) Copyright 2012 Texas Instruments Incorporated. All rights reserved.
*****************************************************************************
** This model is designed as an aid for customers of Texas Instruments.
** TI and its licensors and suppliers make no warranties, either expressed
** or implied, with respect to this model, including the warranties of 
** merchantability or fitness for a particular purpose.  The model is
** provided solely on an "as is" basis.  The entire risk as to its quality
** and performance is with the customer
*****************************************************************************
*
** Released by: WEBENCH Design Center, Texas Instruments Inc.
* Part: LM25061-1
* Date: 8 MAR 2013
* Model Type: Restart_Sequence
* Simulator: PSPICE
* Simulator Version: 16.2.0.s003
* EVM Order Number: AN-1946
* EVM Users Guide: SNVA387C June 29, 2009
* Datasheet: SNVS611D December 09, 2010 
*
* Model Version: Final 1.00
*
*****************************************************************************
*
* Updates:
*
* Final 1.00
* Release to Web.
*
******************************************************************************
.SUBCKT LM25061-1_RESTART_SEQUENCE SENSE VIN UVLO FB GND TIMER PWR PGD OUT GATE
+ PARAMS: Rpwr = 24.3K Rsense = 0.01
VUVLO RESETUVLO 0 DC=0 PULSE 0 3.5 5 1n 1n 20m 10
Q1 UVLO RESETUVLO 0 QN918
.MODEL QN918 NPN BF=104 BR=4 CJC=3.0E-12 CJE=2.4E-12
+ IKF=3.0E-02 IS=5.08E-15 ISE=4.88E-12 NE=2.0 NF=1.0 NR=1.0
+ RB=7.3E+01 RC=7.3E+00 RE=1.8E+01 TF=2.3E-10 TR=2.1E-08
+ VAF=70 VAR=12 XTB=1.5
D3 VIN SENSE _D4_MOD 0.065 IC=0
.MODEL _D4_MOD D t_abs=27 N=1.054 TT=0.1ns VJ=0.6 M=1
GB1 GND GATE Value = { IF(V(SHUTDOWN) < 1.75 , 20u , 0)}
EB14 FBDET GND Value = { IF(V(FB) > 1.17 ,3.5 ,0)}
C5 FBDETX GND 1p
R1 FBDETX FBDET 1K
D2 SENSE VIN _D4_MOD 0.065 IC=0
D1 FB VDDINT1 _D1_MOD 1 IC=0
.MODEL _D1_MOD D t_abs=27 TT=0.1nS VJ=0.6 M=1
GB20 VDDINT1 FB Value = {IF (V(FBDETX) > 1.75 ,22u ,0)}
X1 VDDINT2 FBDETDLY VDDINT2 FBDETX SSWITCH_0
D9 PWR VDDINT1 _D1_MOD 1 IC=0
X7 FBDETDLY GND FBDETX GND SSWITCH_1
C6 FBDETDLY GND 10p
R2 SENSE OUT 1e6
EB21 NPG GND Value = {IF (V(FBDETDLY) > 1.75 ,3.5 ,0)}
VA GND ISUM DC=0
D5 64 TIMER _D1_MOD 1 IC=0
D6 TIMER VDDINT1 _D1_MOD 1 IC=0
V12 SENSEY SENSE DC=0 AC=0
D4 9 GATE _D1_MOD 1 IC=0
V5 9 GND DC=0.799V
V3 64 GND DC=0.673027V
GB22 TIMER GND Value ={IF (V(ITIMERFINISH) > 1.75 ,2.5u ,0)}
D7 GATE 13 _D1_MOD 1 IC=0
V6 13 GND DC=18.949V
GB2 GATE GND Value ={IF(V(SHUTDOWN) > 1.75 , 2m , 0)}
VX GND 14 DC=0
GB3 GATE GND Value ={IF(I(VA) < 132u , I(VA) , 132u)}
V9 VIN ILIMREF DC=50m
GB4 ISUM GND Value ={IF(I(VX) > 0 , I(VX) , 0)}
G1 14 GND ILIMREF SENSEY 5.4E-2
GB6 GND PWR Value={IF(V(SHUTDOWN) < 1.75 , 15u , 0)}
V11 VDDINT1 GND DC=4.7V
EB5 ACTIVEILIM GND Value ={IF(I(VX) > 9u , 3.5 , 0)}
GB25 VDDINT1 TIMER Value={IF (V(ITIMERFINISH) > 1.75 ,0 ,5.5u)}
X2 PWR GND SHUTDOWN GND SSWITCH_2
GB26 TIMER GND Value={IF(V(ENDITIMER) > 1.75 ,2m ,0)}
D8 GND OUT _D1_MOD 1 IC=0
GB27 VDDINT1 TIMER Value ={IF(V(FTIMERON) > 1.75 ,82.5u ,0)}
*EB7 PFETLIM GND VALUE = {1.0* {RPWR}}
EB7 PFETLIM GND VALUE = = {{Rpwr}/{Rsense}/(2.32E5)}
R5 CBDET CBDETDLY 27.1K
GB11 GATE GND Value={IF(V(CBDETDLY) < 1.75 ,IF(V(ITPOR)<1.75,0,260m),0)}
GB8 ISUM GND Value={IF(I(VY) > 0 ,I(VY) ,0)}
VY GND 25 DC=0
G2 25 GND PSENSE PFETLIM {4.5E-5}
EB9 ACTIVEPLIM GND Value={IF(I(VY) > 9u,3.5,0)}
EB10 PSENSE GND Value={(V(VIN,SENSE)/ {Rsense} )*V(SENSE,OUT)}
EB17 UVLODET GND Value={IF(V(UVLO) > 1.17 , 0, 3.5)}
C1 CBDETDLY GND 10p
EB12 CBDET GND Value={IF(V(VIN,SENSE) > 95m ,3.5 ,0)}
X3 VIN 32 ITPORDET COMPHYST_0
EB13 ACTIVE GND Value={IF(V(ACTIVEILIM)|V(ACTIVEPLIM)>1.75,
+ IF(V(SHUTDOWN)<1.75,3.5,0),0)}
V13 32 GND DC=2.6
EB15 SHUTDOWN GND Value={IF(V(ITPOR)<1.75,IF(V(UVLOCK)<1.75,
+ IF(V(TIMEOUT)<1.75,0,3.5),3.5),3.5)}
EB28 RESTART GND Value={IF(V(TIMER)<0.3,3.5,0)}
V15 VDDINT2 GND DC=3.5V
X8 TIMER 65 TIMERCHARGEDET COMPHYST_0
V8 65 GND DC=1.72
X9 VDDINT2 TIMERCHARGEBAR VDDINT2 TIMERCHARGEDET SSWITCH_3
X4 ITPORDLY GND ITPORDET GND SSWITCH_4
C2 ITPORDLY GND 144p
R6 VDDINT2 ITPORDLY 1e6
EB16 ITPOR GND Value={IF(V(ITPORDLY) < 1.75,3.5,0)}
C3 UVLODETX GND 1p
R7 UVLODETX UVLODET 1K
D10 GND UVLO _D1_MOD 1 IC=0
GB18 UVLO GND Value={IF(V(UVLODETX) > 1.75 , 20u, 0)}
X5 VDDINT2 UVLODETDLY VDDINT2 UVLODETX SSWITCH_5
X6 UVLODETDLY GND UVLODETX GND SSWITCH_3
C4 UVLODETDLY GND 12p
EB19 UVLOCK GND Value={IF(V(UVLODETDLY) > 1.75 ,0,3.5)}
X11 TIMERCHARGEBAR GND TIMERCHARGEDET GND SSWITCH_3
C7 TIMERCHARGEBAR GND 28.9p
EB29 TIMERCHARGE GND Value={IF(V(TIMERCHARGEBAR) < 1.75,3.5,0)}
EB30 TIMERISLOW GND Value={IF(V(RESTART) > 1.75,
+ IF(V(TIMERCHARGE) > 1.75 ,3.5,0),0)}
XNOR_A1 ITPOR 66 67 NOR2A_0
XA2 67 TIMERISLOW 66 NOR2A_0
XDA3 67 RESETTIMER INVERTERA_0
XA4 RESETTIMER 68 ITIMERALMFINISH NOR2A_0
XA5 ITIMERALMFINISH TIMERDISCH 68 NOR2A_0
XA6 TIMERCHARGE TIMERDISCH INVERTERA_0
XA7 RESETTIMER IHOLDOFF ITIMERFINISH NOR2A_0
XA8 ITIMERFINISH 69 IHOLDOFF NOR2A_0
XAN9 ITIMERALMFINISH TIMERISLOW 69 AND2A_0
E23 VINDET GND Value={IF(V(VIN) > 1.6,3.5, 0)}
E24 NOTPGD GND Value={IF(   ( V(NPG) > 1.75 | V(ITPOR) > 1.75
+  | V(SHUTDOWN) > 1.75) & (V(VINDET) > 1.75),3.5,0)}
X10 PGD GND NOTPGD GND SSWITCH_8
C8 ITIMERFINISH GND 1F
XOA10 RESETTIMER 70 ENDITIMER OR2A_0
XA11 ITIMERALMFINISH IHOLDOFF 70 AND2A_0
C9 ENDITIMER GND 1F
XA12 FAULTR 71 FSHUTDOWN NOR2A_0
XA13 FSHUTDOWN FAULTS 71 NOR2A_0
XA14 FSHUTDOWN RESETCOUNTER INVERTERA_0
XA15 TIMERISLOW UVLOCK 72 AND2A_0
XA16 72 RESETTIMER FAULTR OR2A_0
XA17 ITIMERFINISH TIMERDISCH FAULTS AND2A_0
XA18 FSHUTDOWN IHOLDOFF RUNNING NOR2A_0
XA19 RUNNING TIMEOUT INVERTERA_0
C10 FTIMERON GND 1F
XA20 FSHUTDOWN 73 FTIMERON NOR2A_0
XA21 RUNNING ACTIVE 73 NAND2A_0
C11 TIMEOUT GND 1F
.ENDS
*$
.SUBCKT NOR2A_0 1 2 3
EB1 4 0 VALUE ={IF(V(1)>1.75 | V(2)>1.75, 0.3, 3.5)}
RD 4 3 1
CD 3 0 0.2nF
.ENDS
*$
.SUBCKT INVERTERA_0 1 2
EB1 3 0 VALUE ={IF(V(1)>1.75 , 0.3, 3.5)}
RD 3 2 1
CD 2 0 0.2nF
.ENDS
*$
.SUBCKT AND2A_0 1 2 3
EB1 4 0 VALUE ={IF(V(1)>1.75 & V(2)>1.75, 3.5, 0.3)}
RD 4 3 1
CD 3 0 0.2nF
.ENDS
*$
.SUBCKT OR2A_0 1 2 3
EB1 4 0 VALUE ={IF(V(1)>1.75 | V(2)>1.75, 3.5, 0.3)}
RD 4 3 1
CD 3 0 0.2nF
.ENDS
*$
.SUBCKT NAND2A_0 1 2 3
EB1 4 0 VALUE ={IF(V(1)>1.75 & V(2)>1.75, 0.3, 3.5)}
RD 4 3 1
CD 3 0 0.2nF
.ENDS
*$
.SUBCKT SSWITCH_0 1 2 3 4 PARAMS:RON=15.8K ROFF=1G VON=1.8  VOFF=1.7
S_A1 1 2 3 4 SMOOTH
.MODEL _D4_MOD D N=1.054 TT=0.1nS VJ=0.6
.MODEL _D1_MOD D TT=0.1nS VJ=0.6
.MODEL SMOOTH VSWITCH RON={RON} ROFF={ROFF} VON={VON}  VOFF={VOFF}
.ENDS
*$
.SUBCKT SSWITCH_1 1 2 3 4 PARAMS: RON=14.3K ROFF=1G VON=1.8  VOFF=1.7
S_A1 1 2 3 4 SMOOTH
.MODEL _D4_MOD D N=1.054 TT=0.1NS VJ=0.6
.MODEL _D1_MOD D TT=0.1NS VJ=0.6
.MODEL SMOOTH VSWITCH RON={RON} ROFF={ROFF} VON={VON}  VOFF={VOFF}
.ENDS
*$
.SUBCKT SSWITCH_2 1 2 3 4 PARAMS:RON=140  ROFF=1G VON=1.8  VOFF=1.7
S_A1 1 2 3 4 SMOOTH
.MODEL _D4_MOD D N=1.054 TT=0.1NS VJ=0.6
.MODEL _D1_MOD D TT=0.1NS VJ=0.6
.MODEL SMOOTH VSWITCH RON={RON} ROFF={ROFF} VON={VON}  VOFF={VOFF}
.ENDS
*$
.SUBCKT SSWITCH_3 1 2 3 4 PARAMS: RON={1e6} ROFF=1G VON=1.8  VOFF=1.7
S_A1 1 2 3 4 SMOOTH
.MODEL _D4_MOD D N=1.054 TT=0.1NS VJ=0.6
.MODEL _D1_MOD D TT=0.1NS VJ=0.6
.MODEL SMOOTH VSWITCH RON={RON} ROFF={ROFF} VON={VON}  VOFF={VOFF}
.ENDS
*$
.SUBCKT SSWITCH_4 1 2 3 4 PARAMS: RON=1 ROFF=1G VON=1.8  VOFF=1.7
S_A1 1 2 3 4 SMOOTH
.MODEL _D4_MOD D N=1.054 TT=0.1NS VJ=0.6
.MODEL _D1_MOD D TT=0.1NS VJ=0.6
.MODEL SMOOTH VSWITCH RON={RON} ROFF={ROFF} VON={VON}  VOFF={VOFF}
.ENDS
*$
.SUBCKT SSWITCH_5 1 2 3 4 PARAMS: RON={1.8070e6} ROFF=1G VON=1.8 VOFF=1.7
S_A1 1 2 3 4 SMOOTH
.MODEL _D4_MOD D N=1.054 TT=0.1NS VJ=0.6
.MODEL _D1_MOD D TT=0.1NS VJ=0.6
.MODEL SMOOTH VSWITCH RON={RON} ROFF={ROFF} VON={VON}  VOFF={VOFF}
.ENDS
*$
.SUBCKT SSWITCH_8 1 2 3 4 PARAMS: RON=7.5  ROFF=100e6 VON=1.8  VOFF=1.7
S_A1 1 2 3 4 SMOOTH
.MODEL _D4_MOD D N=1.054 TT=0.1NS VJ=0.6
.MODEL _D1_MOD D TT=0.1NS VJ=0.6
.MODEL SMOOTH VSWITCH RON={RON} ROFF={ROFF} VON={VON}  VOFF={VOFF}
.ENDS
*$
.SUBCKT COMPHYST_0 LO HI OUT
S1 2 OUT HI LO _S1_MOD
R1 OUT 0 1K
EB2 2 0 VALUE={3.5}
R2 LO 0 1E12
R3 HI 0 1E12
.MODEL _S1_MOD VSWITCH Von=150m Voff=0 ROFF=1e6
.ENDS
*$
.SUBCKT COMPHYST_1 LO HI OUT
S1 2 OUT HI LO _S1_MOD
R1 OUT 0 1K
EB2 2 0 Value ={3.5}
R2 LO 0 1E12
R3 HI 0 1E12
.MODEL _S1_MOD VSWITCH Von=720m Voff=0 ROFF=1e6
.ENDS
*$
.SUBCKT FDD8874 3 1 2
Ca 12 8 2.1e-9
Cb 15 14 2.1e-9
Cin 6 8 2.7e-9
Dbody 7 5 Dbody
Dbreak 5 11 Dbreak
Dplcap 10 5 Dplcap
Ebreak 11 7 17 18 33.5
Eds 14 8 5 8 1
Egs 13 8 6 8 1
Esg 6 10 6 8 1
Evthres 6 21 19 8 1
Evtemp 20 6 18 22 1
It 8 17 1
Lgate 1 9 6.5e-9
Ldrain 2 5 1.0e-9
Lsource 3 7 1.8e-9
RLgate 1 9 65
RLdrain 2 5 10
RLsource 3 7 18
Mmed 16 6x 8 8 Mmed L=10u W=1u
rmmed 6 6x 2
Mstro 16 6 8 8 Mstro L=10u W=1u
Mweak 16 21x 8 8 Mweak L=10u W=1u
rmweak 21 21x 20
Rbreak 17 18 1
Rdrain 50 16 2e-3
Rgate 9 20 2.0
RSLC1 5 51 1e-6
RSLC2 5 50 1e3
Rsource 8 7 2e-3
Rvthres 22 8 1
Rvtemp 18 19 1
S1a 6 12 13 8 S1a
S1b 13 12 13 8 S1b
S2a 6 15 14 13 S2a
S2b 13 15 14 13 S2b
Vbat 22 19 DC 1
EBSLC 51 50  Value={(V(5,51)/ABS(V(5,51)))*(PWR(V(5,51)/(1e-6*500),10))}
.MODEL Dbody D (IS=7E-12 IKF=10 N=1.01 RS=2.5e-3 TRS1=8e-4 TRS2=2e-7
+ CJO=1.2e-9 M=0.57 TT=1e-15 XTI=1.2
.MODEL Dbreak D RS=8e-2 TRS1=1e-3 TRS2=-8.9e-6
.MODEL Dplcap D CJO=9.2e-10 IS=1e-30 N=10 M=0.37
.MODEL Mmed NMOS VTO=1.8 KP=9 IS=1e-30 TOX=1
.MODEL Mstro NMOS VTO=2.2 KP=380 IS=1e-30 TOX=1
.MODEL Mweak NMOS VTO=1.49 KP=0.05 IS=1e-30 TOX=1 RS=0.1
.MODEL Rbreak Res TC1=8.3e-4 TC2=-8e-7
.MODEL Rdrain Res TC1=6.7e-3 TC2=7e-6
.MODEL RSLC Res TC1=1e-4 TC2=1e-6
.MODEL Rsource Res TC1=1e-4 TC2=1e-6
.MODEL Rvthres Res TC1=-2.1e-3 TC2=-8e-6
.MODEL Rvtemp Res TC1=-1.8e-3 TC2=2e-7
.MODEL S1a VSWITCH RON=1e-5 ROFF=0.1 VON=-4 VOFF=-3
.MODEL S1b VSWITCH RON=1e-5 ROFF=0.1 VON=-3 VOFF=-4
.MODEL S2a VSWITCH RON=1e-5 ROFF=0.1 VON=-2 VOFF=-0.5
.MODEL S2b VSWITCH RON=1e-5 ROFF=0.1 VON=-0.5 VOFF=-2
.ENDS
*$
.SUBCKT SMBJ16A A K
D1 A K SMBJ16A
.MODEL SMBJ16A D
+ IS=9.0000E-6
+ N=1.4420
+ RS=60.000E-3
+ XTI=2
+ EG=.69
+ CJO=470.00E-12
+ M=.8
+ ISR=100.00E-12
+ BV=500
+ IBV=1.0000E-6
+ TT=5.0000E-9
.ENDS
*$
.SUBCKT EEE-TG1V221UP 13 2
C3 13 11 2.7499999999999998E-5 IC=16.0
C4 13 3 1.3749999999999999E-5 IC=16.0
C5 13 4 6.874999999999999E-6 IC=16.0
R1 4 5 0.00125
R2 3 6 9.000000000000001E-4
R3 11 7 0.00175
R4 12 8 0.00232
C6 13 9 1.0999999999999999E-4 IC=16.0
R5 13 0 1000000.0
R6 9 10 0.00625
L1 5 2 8.0E-9
L2 6 2 8.0E-9
L3 7 2 8.0E-9
L4 8 2 8.0E-9
L5 10 2 8.0E-9
R8 2 0 1000000.0
C2 13 12 5.4999999999999995E-5 IC=16.0
.ENDS
*$
