*$
* LM359
*****************************************************************************
* (C) Copyright 2022 Texas Instruments Incorporated. All rights reserved.                                            
*****************************************************************************
** This model is designed as an aid for customers of Texas Instruments.
** TI and its licensors and suppliers make no warranties, either expressed
** or implied, with respect to this model, including the warranties of 
** merchantability or fitness for a particular purpose.  The model is
** provided solely on an "as is" basis.  The entire risk as to its quality
** and performance is with the customer
*****************************************************************************
*
* This model is subject to change without notice. Texas Instruments
* Incorporated is not responsible for updating this model.
*
*****************************************************************************
*
** Released by: Online Design Tools, Texas Instruments Inc.
* Part: LM359
* Date: 08SEP2022
* EVM Order Number: NA
* EVM Users Guide:  NA
* Datasheet: SNOSBT4C -MAY 1999-REVISED MARCH 2013
*
*
* Model Version: Final 1.1
*
*****************************************************************************
*
*
* Updates:
*
* Final 1.1
* 1. Updated PSpice Symbol.
*
* Final 1.0: 
* Release to Web
*
*****************************************************************************
* Model Usage Notes:
* 1. Model file is updated with latest header.
*****************************************************************************
* Connections: I_IN(+)
*              | COMMON
*              | | I_IN(-)
*              | | | Output
*              | | | | VCC
*              | | | | | Comp
*              | | | | | | ISET(out)  
*              | | | | | | | ISET(in)
*              | | | | | | | |
.SUBCKT LM359  1 2 3 4 5 6 7 8 
*****************************************************************************
Q1 1 1 2 QINMOD
Q2 3 1 2 QINMOD
Q3 6 3 2 QINMOD                       
Q4 6 41 5 QPMOD
FA1 41 5 VSNS2 2e-2  
CMP1 6 2 13e-12   
EA1 35 39 6 2 1.0 
R_XT 35 19 1e4 
RSER 19 36 100 
C_XT 36 2 3e-13 
Q5 5 19 11 QOUT1 
Q6 5 11 12 QBG 10  
RSC 12 4 10  
Q15 4 18 2 QBG 10  
FB1 2 18 VSNS1 0.09 
Q18 6 24 2 QINMOD  
RQ18 24 25 100
EQ18 25 2 12 4 1.7
EPSR2 39 2 47 2 1.0 
EPSR1 46 2 5 2 1.0  
CBG 46 47 1e-3 
RBG 47 2 10K 
DO1 5 13 DMOD1
VSNS1 13 14 DC 0  
RSET1 14 7 500  
DO2 16 2 DMOD1
VSNS2 15 16 DC 0   
RSET2 8 15 500  
RPWR 5 2 3.3K  
.MODEL DMOD1 D
.MODEL QPMOD PNP (BF=100  VAF=110)
.MODEL QINMOD NPN (BF=100 RE=5 RC=100) 
.MODEL QOUT1 NPN (BF=100 RC=50)   
.MODEL QBG NPN (BF=100 RC=10)   
.ENDS  LM359  
