* source LMG1205
*
*****************************************************************************
* (C) Copyright 2017 Texas Instruments Incorporated. All rights reserved.                                            
*****************************************************************************
** This model is designed as an aid for customers of Texas Instruments.                                             
** TI and its licensors and suppliers make no warranties, either expressed                                           
** or implied, with respect to this model, including the warranties of                                                    
** merchantability or fitness for a particular purpose. The model is                                                      
** provided solely on an "as is" basis. The entire risk as to its quality                                                    
** and performance is with the customer.                                                                                         
*****************************************************************************
*
* Released by: WEBENCH Design Center, Texas Instruments Inc.
* Part: LMG1205
* Date: 11/29/2017
* Model Type: Transient 
* Simulator: PSPICE
* Simulator Version: 16.2
* EVM Order Number: 
* EVM Users Guide: 
* Datasheet: SNOSD37 –JANUARY 2017
* Model Version: Final 1.1
* Release to Web.
****************************************************************
* This model provides the following parameterss
* 
* propogation delay time, UVLO, Sink and source current limits
****************************************************************
****************************************************************
*$
.subckt LMG1205 HI LI HB HOH HOL HS_0 HS_1 VDD_0 VDD_1  LOH LOL VSS

RVdd1 VDD VDD_1 1m
RVdd0 VDD VDD_0 1m
RHSS0 HS HS_0 1m
RHSS1 HS HS_1 1m 
M_U1_M2         U1_N16546407 U1_N16546363 HOL HOL PMOS01           
C_U1_C1         U1_N16539498 U1_N16539524  10p  
E_U1_E4         U1_N16548656 LOH VALUE { IF(V(U1_LO_ON, 0) > 0.5, 5, -5) }
E_U1_E5         U1_LO_ON VSS U1_N16553845 VSS 1
V_U1_V1         U1_N16504493 VSS 1.8
R_U1_R8         VDD U1_N16589880  0.02  
R_U1_R5         U1_N16546337 U1_N16546363  100  
V_U1_V5         U1_N16605729 0 3.8
R_U1_R6         U1_N16546407 HS  0.02  
E_U1_E1         U1_N16539492 HOH VALUE { IF(V(U1_HI_ON, 0) > 0.5, 5, -5) }
M_U1_M1         U1_N16539524 U1_N16539498 HOH HOH NMOS01           
X_U1_U5         HI U1_N16504661 U1_N16504667 U1_N16504357 COMPHYS_BASIC_GEN
+  PARAMS: VDD=1 VSS=0 VTHRESH=0.5
X_U1_U11         U1_N16505013 U1_N16560491 BUFFER_PS PARAMS: VHI=1 VLO=0
+  VTHRESH=500E-3 TPLH={Thplh-3n} TPHL={Thphl-3n} TR=1E-9 TF=1E-9
X_U1_U4         U1_N16504561 U1_UVLOHI U1_N16505013 AND2_BASIC_GEN PARAMS:
+  VDD=1 VSS=0 VTHRESH=.5
X_U1_U13         VDD U1_N16605729 U1_N16602981 U1_VDD_UVLO COMPHYS_BASIC_GEN
+  PARAMS: VDD=1 VSS=0 VTHRESH=0.5
X_U1_U8         U1_LO_ON U1_N16552295 falling_delay PARAMS:  DELAY=5n VDD=1
+  VSS=0 VTHRESH=0.5
C_U1_C6         HOL U1_N16546363  20p  
X_U1_U6         VDD U1_N16504545 d_d1 PARAMS:
X_U1_U7         U1_HI_ON U1_N16546555 falling_delay PARAMS:  DELAY=5n VDD=1
+  VSS=0 VTHRESH=0.5
V_U1_V6         U1_N16602981 0 0.2
E_U1_E2         HOL U1_N16546337 VALUE { IF(V(U1_N16546555, 0) > 0.5, -5, 5) }
C_U1_C7         U1_N16590598 U1_N16590570  20p  
X_U1_U2         U1_N16504357 U1_VDD_UVLO U1_UVLOHI AND2_BASIC_GEN PARAMS: VDD=1
+  VSS=0 VTHRESH=.5
R_U1_R9         U1_N16552085 U1_N16590570  100  
E_U1_ABM4         U1_N16504561 0 VALUE { if( V(HB) - V(HS) > 3.8,  
+ 1, 0)   }
X_U1_U12         U1_UVLOLOW U1_N16553845 BUFFER_PS PARAMS: VHI=1 VLO=0
+  VTHRESH=500E-3 TPLH={Thplh-2n} TPHL={Thphl-2n} TR=1E-9 TF=1E-9
M_U1_M3         U1_N16589880 U1_N16589854 LOH LOH NMOS01           
E_U1_ABM2         U1_N16504999 0 VALUE { if( V(HB) - V(HS) < 5.2,  
+ 1, 0)   }
V_U1_V2         U1_N16504499 0 0.4
R_U1_R4         HB U1_N16539524  0.02  
E_U1_E3         LOL U1_N16552085 VALUE { IF(V(U1_N16552295, 0) > 0.5, -5, 5) }
V_U1_V4         U1_N16504667 0 0.4
R_U1_R3         U1_N16539492 U1_N16539498  50  
C_U1_C5         LOH U1_N16589854  10p  
E_U1_E6         U1_HI_ON VSS U1_N16560491 VSS 1
V_U1_V3         U1_N16504661 VSS 1.8
C_U1_C2         U1_N16546407 U1_N16546363  20p  
C_U1_C4         U1_N16589854 U1_N16589880  10p  
R_U1_R7         U1_N16548656 U1_N16589854  50  
X_U1_U10         LI U1_N16504493 U1_N16504499 U1_N16504721 COMPHYS_BASIC_GEN
+  PARAMS: VDD=1 VSS=0 VTHRESH=0.5
M_U1_M4         U1_N16590598 U1_N16590570 LOL LOL PMOS01           
C_U1_C8         LOL U1_N16590570  20p  
R_U1_R10         U1_N16590598 VSS  0.02  
X_U1_S7    U1_N16504999 VSS U1_N16504545 HB LMG1205_TRANS_U1_S7 
C_U1_C3         HOH U1_N16539498  10p  
X_U1_U3         U1_VDD_UVLO U1_N16504721 U1_UVLOLOW AND2_BASIC_GEN PARAMS:
+  VDD=1 VSS=0 VTHRESH=.5
R_U1_R2         VSS HI  200k  
R_U1_R1         VSS LI  200k  
.PARAM  thplh=30n tlphl=50n thphl=22n tlplh=50n


.ends
*$
.subckt LMG1205_TRANS_U1_S7 1 2 3 4  
S_U1_S7         3 4 1 2 _U1_S7
RS_U1_S7         1 2 1G
.MODEL         _U1_S7 VSWITCH Roff=1e11 Ron=1 Voff=.4 Von=.6
.ends LMG1205_TRANS_U1_S7
*$

.SUBCKT COMPHYS_BASIC_GEN INP INM HYS OUT PARAMS: VDD=1 VSS=0 VTHRESH=0.5	
EIN INP1 INM1 INP INM 1 
EHYS INP1 INP2 VALUE { IF( V(1) > {VTHRESH},-V(HYS),0) }
EOUT OUT 0 VALUE { IF( V(INP2)>V(INM1), {VDD} ,{VSS}) }
R1 OUT 1 1
C1 1 0 5.0n
RINP1 INP1 0 1K
.ENDS COMPHYS_BASIC_GEN
*$

.SUBCKT D_D1 1 2
D1 1 2 DD1
.MODEL DD1 D
+ is=1e-015
+ n=0.01
+ tt=1e-011
.ENDS D_D1


*$
.subckt d_d 1 2
d1 1 2 dd
.model dd d
+ is=1e-015
+ n=0.01
+ tt=1e-011
.ends d_d
*$
.SUBCKT FALLING_DELAY IN OUT PARAMS: DELAY=100n VDD=1 VSS=0 VTHRESH=0.5
X_U1         INT OUT BUF_BASIC_GEN PARAMS: VDD={VDD} VSS={VSS} VTHRESH=
+ {VTHRESH}
R_R1         IN INT  {DELAY/(0.693 * 1E-9)}  
C_C1         0 INT  1n  
D_D1         IN INT DD 
.MODEL DD D( IS=1F N=0.01 TT = 10p )
.ENDS FALLING_DELAY
*$
.SUBCKT BUFFER_PS A Y PARAMS: vhi=1 vlo=0 vthresh=500e-3 tplh=1e-9 tphl=1e-9 tr=1e-9 tf=1e-9
RA A 0 1e11
CA A 0 0.01pF
VS VSUP 0 DC 1
EBUF1 Ypp 0 VALUE={IF(V(A) > ({vthresh}), 1, 0)}
ROUTpp Ypp 0 1e11
XNSW1 OUTp Ypp 0 NSW_PS PARAMS: RONval={(tplh+1e-15)/(1e-12*0.693)} VTHval=0.5
XPSW1 OUTp Ypp VSUP PSW_PS PARAMS: RONval={(tphl+1e-15)/(1e-12*0.693)} VTHval=0.5
CDEL1 OUTp 0 1pF
ETHRESH Yp 0 VALUE={IF(V(OUTp) > 0.5, 1, 0)}
ROUTp Yp 0 1e11
XNSW2 OUTr Yp 0 NSW_PS PARAMS: RONval={(tf+1e-15)/(1e-12*2.3)} VTHval=0.5
XPSW2 OUTr Yp VSUP PSW_PS PARAMS: RONval={(tr+1e-15)/(1e-12*2.3)} VTHval=0.5
CDEL2 OUTr 0 1pF
EOUT OUTf 0 VALUE={V(OUTr)*({vhi} - {vlo})+{vlo}}
RDR OUTf Y  1000
RO Y 0 1e11
.ENDS BUFFER_PS
*$
.SUBCKT AND2_BASIC_GEN A B Y PARAMS: VDD=1 VSS=0 VTHRESH=0.5 
E_ABMGATE    YINT 0 VALUE {{IF(V(A) > {VTHRESH}  &  
+ V(B) > {VTHRESH},{VDD},{VSS})}}
RINT YINT Y 1
CINT Y 0 1n
.ENDS AND2_BASIC_GEN
*$
.SUBCKT NSW_PS D G S PARAMS: RONval=10k VTHval=0.7 VCHARval=0.01 CGval=0.01pF CDval=0.01pF CSval=0.01pf
RDDUM D 0 1e11
RSDUM S 0 1e11
RGDUM G 0 1e11
CG G D {CGval}
CD D S {CDval}
CS G S {CSval}
***EEXP F1 0 VALUE={LIMIT(((V(G,S)-VTHval)/VCHARval),-80,80)} 
Etest test 0 VALUE={IF(V(D) > V(S), V(G,S), V(G,D))}
GOUT D S VALUE={V(D,S)/(RONval*(1+EXP(-LIMIT(((V(test)-VTHval)/VCHARval),-80,80))))}
.ENDS NSW_PS
*$
.SUBCKT PSW_PS D G S PARAMS: RONval=10k VTHval=0.7 VCHARval=0.01 CGval=0.01pF CDval=0.01pF 
RDDUM D 0 1e11
RSDUM S 0 1e11
RGDUM G 0 1e11
CG G D {CGval}
CD D S {CDval}
Etest test 0 VALUE={IF(V(S) > V(D), V(S,G), V(D,G))}
GOUT S D VALUE={V(S,D)/(RONval*(1+EXP(-LIMIT(((V(test)-VTHval)/VCHARval),-80,80))))}
.ENDS PSW_PS
*$
.SUBCKT BUF_BASIC_GEN A  Y PARAMS: VDD=1 VSS=0 VTHRESH=0.5 
E_ABMGATE    YINT 0 VALUE {{IF(V(A) > {VTHRESH} , 
+ {VDD},{VSS})}}
RINT YINT Y 1
CINT Y 0 1n
.ENDS BUF_BASIC_GEN
*$
.SUBCKT NAND2_BASIC_GEN A B Y PARAMS: VDD=1 VSS=0 VTHRESH=0.5 
E_ABMGATE    YINT 0 VALUE {{IF(V(A) > {VTHRESH}  &  
+ V(B) > {VTHRESH},{VSS},{VDD})}}
RINT YINT Y 1
CINT Y 0 1n
.ENDS NAND2_BASIC_GEN
*$
.model NMOS01 NMOS
+ VTO     = 2
+ KP      = 0.267
*+ KP      = 0.1638
+ LAMBDA  = 0.001
*$
.model PMOS01 PMOS
+ VTO     = -2
+ KP      = 1.11
*+ KP      = 0.389
+ LAMBDA  = 0.001
*$
