* source  lmg3410R150
*
*
*****************************************************************************
* (C) Copyright 2019 Texas Instruments Incorporated. All rights reserved.                                            
*****************************************************************************
** This model is designed as an aid for customers of Texas Instruments.                                             
** TI and its licensors and suppliers make no warranties, either expressed                                           
** or implied, with respect to this model, including the warranties of                                                    
** merchantability or fitness for a particular purpose. The model is                                                      
** provided solely on an "as is" basis. The entire risk as to its quality                                                    
** and performance is with the customer.                                                                                         
*****************************************************************************
*
* Released by: Texas Instruments Inc.
* Part:  lmg3410R150
* Date: 9/10/2019
* Model Type: Transient 
* Simulator: PSPICE
* Simulator Version: 16.2
* Datasheet: 
* Model Version: Final 1.0
* Release to Web.
****************************************************************************
.SUBCKT  lmg3410R150  RDRV  IN Drain_0 Drain_1 Drain_2 Drain_3 
+ Drain_4 Drain_5 Drain_6 Drain_7 Drain_8 Drain_9 Drain_10 BBSW 
+ Vneg VDD Source_0 Source_1 Source_2 Source_3 Source_4 Source_5
+ Source_6 Source_7 Source_8 Source_9 Source_10 
+ FAULT_B LPM_B LDO_5V  GND NC PAD
+PARAMS: Temp_Celsius=160
RNC NC 0 10e9
C_NC NC 0 1u
RPAD PAD 0 10e9
RDrain_0  Drain_0 Drain 0.1m
RDrain_1  Drain_1 Drain 0.1m
RDrain_2  Drain_2 Drain 0.1m
RDrain_3  Drain_3 Drain 0.1m
RDrain_4  Drain_4 Drain 0.1m
RDrain_5  Drain_5 Drain 0.1m
RDrain_6  Drain_6 Drain 0.1m
RDrain_7  Drain_7 Drain 0.1m
RDrain_8  Drain_8 Drain 0.1m
RDrain_9  Drain_9 Drain 0.1m
RDrain_10  Drain_10 Drain 0.1m
RSource_0  Source_0 Source 0.1m
RSource_1  Source_1 Source 0.1m
RSource_2  Source_2 Source 0.1m
RSource_3  Source_3 Source 0.1m
RSource_4  Source_4 Source 0.1m
RSource_5  Source_5 Source 0.1m
RSource_6  Source_6 Source 0.1m
RSource_7  Source_7 Source 0.1m
RSource_8  Source_8 Source 0.1m
RSource_9  Source_9 Source 0.1m
RSource_10  Source_10 Source 0.1m

X_UT_LMG3410PM_H2    DRAIN UT_LMG3410PM_N02607 UT_LMG3410PM_I_DETECT_T 0
+  LMG3410_PM_UT_LMG3410PM_H2 
E_UT_LMG3410PM_ABM4         UT_LMG3410PM_N339734 0 VALUE { (
+  V(UT_LMG3410PM_N02173)  
+ *V(UT_LMG3410PM_FAULT_Z_TOP) ) / 1   }
E_UT_LMG3410PM_E8         UT_LMG3410PM_N01859 GND UT_LMG3410PM_N01929 0 1
E_UT_LMG3410PM_E6         UT_LMG3410PM_IN_SHIFTED_TOP 0 IN GND 1
C_UT_LMG3410PM_C4         UT_LMG3410PM_N02607 UT_LMG3410PM_SOURCE_INT  60p  
X_UT_LMG3410PM_U8         GND UT_LMG3410PM_N02815 d_d PARAMS:
X_UT_LMG3410PM_U103         UT_LMG3410PM_IN_SHIFTED_TOP
+  UT_LMG3410PM_IN_BUFFERED_TOP BUF_DELAY_BASIC_GEN PARAMS: VDD=1 VSS=0
+  VTHRESH=0.5 DELAY=15n
R_UT_LMG3410PM_R_probe4         UT_LMG3410PM_N02213 UT_LMG3410PM_N01993  0.1m
+  TC=0,0 
X_UT_LMG3410PM_U7         UT_LMG3410PM_N02815 UT_LMG3410PM_VDDCL d_d PARAMS:
V_UT_LMG3410PM_U_Driver_V11         UT_LMG3410PM_U_Driver_N00597 GND 14
X_UT_LMG3410PM_U_Driver_S20    UT_LMG3410PM_GATE_DRV_T 0 UT_LMG3410PM_N02815
+  UT_LMG3410PM_U_Driver_N00691 GaN_Driver_UT_LMG3410PM_U_Driver_S20 
X_UT_LMG3410PM_U_Driver_U31         UT_LMG3410PM_U_Driver_N01123 N16782979
+  INV_BASIC_GEN PARAMS: VDD=1 VSS=0 VTHRESH=500E-3
X_UT_LMG3410PM_U_Driver_U8         GND UT_LMG3410PM_U_Driver_N00691 d_d PARAMS:
G_UT_LMG3410PM_U_Driver_U_Rsr_ABMII1         UT_LMG3410PM_U_Driver_N00695
+  UT_LMG3410PM_N02815 VALUE { (-4040 * V(UT_LMG3410PM_U_Driver_U_Rsr_N15834)*
+  V(UT_LMG3410PM_U_Driver_U_Rsr_N15834) + 0.7444 *
+  V(UT_LMG3410PM_U_Driver_U_Rsr_N15834) +0.000004303)*6.3*0.5 }
V_UT_LMG3410PM_U_Driver_U_Rsr_V10         UT_LMG3410PM_U_Driver_U_Rsr_N02774
+  GND 1.2
X_UT_LMG3410PM_U_Driver_U_Rsr_H1    UT_LMG3410PM_U_Driver_U_Rsr_N02774 RDRV
+  UT_LMG3410PM_U_Driver_U_Rsr_N15834 0
+  Isr_Conversion_UT_LMG3410PM_U_Driver_U_Rsr_H1 
X_UT_LMG3410PM_U_Driver_U7         UT_LMG3410PM_U_Driver_N00691
+  UT_LMG3410PM_U_Driver_N00597 d_d PARAMS:
X_UT_LMG3410PM_U_Driver_U105         UT_LMG3410PM_U_Driver_N01123
+  UT_LMG3410PM_GATE_DRV_T BUF_DELAY_BASIC_GEN PARAMS: VDD=1 VSS=0 VTHRESH=0.5
+  DELAY=25n
X_UT_LMG3410PM_U_Driver_F5    UT_LMG3410PM_U_Driver_N00597
+  UT_LMG3410PM_U_Driver_N00695 UT_LMG3410PM_U_Driver_N00597
+  UT_LMG3410PM_U_Driver_N00691 GaN_Driver_UT_LMG3410PM_U_Driver_F5 
X_UT_LMG3410PM_U_Driver_U106         UT_LMG3410PM_U_Driver_N01123
+  UT_LMG3410PM_U_Driver_GATE_DRVZ INV_DELAY_BASIC_GEN PARAMS: VDD=1 VSS=0
+  VTHRESH=0.5 DELAY=25n
X_UT_LMG3410PM_U_Driver_U103         UT_LMG3410PM_FAULT_Z_TOP
+  UT_LMG3410PM_IN_BUFFERED_TOP UT_LMG3410PM_U_Driver_N01123 AND2_BASIC_GEN
+  PARAMS: VDD=1 VSS=0 VTHRESH=500E-3
X_UT_LMG3410PM_U_Driver_S19    UT_LMG3410PM_U_Driver_GATE_DRVZ 0
+  UT_LMG3410PM_N02815 GND GaN_Driver_UT_LMG3410PM_U_Driver_S19 
C_UT_LMG3410PM_C3         UT_LMG3410PM_N02815 UT_LMG3410PM_N02607  4p  
E_UT_LMG3410PM_E10         UT_LMG3410PM_VDDCL 0 VDD 0 1
C_UT_LMG3410PM_C17         0 UT_LMG3410PM_N01929  1n  TC=0,0 
R_UT_LMG3410PM_RLDMOS         UT_LMG3410PM_SOURCE_INT SOURCE  7m TC=0,0 
R_UT_LMG3410PM_R_faultout1         UT_LMG3410PM_N01859 FAULT_B  100 TC=0,0 
R_UT_LMG3410PM_R22         UT_LMG3410PM_N339734 UT_LMG3410PM_N01929  1k TC=0,0 
R_UT_LMG3410PM_R_Pulldown1         IN GND  150k TC=0,0 
C_UT_LMG3410PM_C18         0 UT_LMG3410PM_LDMOS_GATE_TOP  1n  TC=0,0 
V_UT_LMG3410PM_V15         UT_LMG3410PM_N02203 0 5
X_UT_LMG3410PM_U118         UT_LMG3410PM_N406283 LDO_5V OUT_CURRENT_CLAMP
+  PARAMS:  RSER=1 IMAX=10M IMIN=10M
X_UT_LMG3410PM_U99         UT_LMG3410PM_FAULT_Z_TOP UT_LMG3410PM_N397400
+  BUF_BASIC_GEN PARAMS: VDD=1 VSS=0 VTHRESH=0.5
X_UT_LMG3410PM_U10         UT_LMG3410PM_N02607 UT_LMG3410PM_N02815
+  UT_LMG3410PM_SOURCE_INT power_n_mosfet PARAMS:T={Temp_Celsius}

R_UT_LMG3410PM_R23         UT_LMG3410PM_N397400 UT_LMG3410PM_LDMOS_GATE_TOP  1k
+  TC=0,0 
E_UT_LMG3410PM_U_Fault1_E1         0 UT_LMG3410PM_U_Fault1_ABS_VNEG
+  UT_LMG3410PM_VNEG_14V 0 1
V_UT_LMG3410PM_U_Fault1_V9         UT_LMG3410PM_U_Fault1_N16820331 0 12.3
V_UT_LMG3410PM_U_Fault1_V7         UT_LMG3410PM_U_Fault1_N16779894 0 9
X_UT_LMG3410PM_U_Fault1_U105         UT_LMG3410PM_U_Fault1_N16802625
+  UT_LMG3410PM_U_Fault1_N16800340 BUF_DELAY_BASIC_GEN PARAMS: VDD=1 VSS=0
+  VTHRESH=0.5 DELAY=110u
X_UT_LMG3410PM_U_Fault1_U104         UT_LMG3410PM_U_Fault1_UVLO_LDO
+  UT_LMG3410PM_U_Fault1_N16780478 INV_BASIC_GEN PARAMS: VDD=1 VSS=0
+  VTHRESH=500E-3
V_UT_LMG3410PM_U_Fault1_V10         UT_LMG3410PM_U_Fault1_N16777500 0 0.5
X_UT_LMG3410PM_U_Fault1_U110         UT_LMG3410PM_U_Fault1_N16799356
+  UT_LMG3410PM_U_Fault1_N16792825 UT_LMG3410PM_U_Fault1_N16802625 OR2_BASIC_GEN
+  PARAMS: VDD=1 VSS=0 VTHRESH=500E-3
X_UT_LMG3410PM_U_Fault1_U101         UT_LMG3410PM_U_Fault1_N16809754
+  UT_LMG3410PM_LDO_5V_INT UT_LMG3410PM_U_Fault1_N16809735
+  UT_LMG3410PM_U_Fault1_UVLO_LDO COMPHYS2_BASIC_GEN PARAMS: VDD=1 VSS=0
+  VTHRESH=0.5 T=10
X_UT_LMG3410PM_U_Fault1_U109         UT_LMG3410PM_U_Fault1_ALL_GOOD
+  UT_LMG3410PM_U_Fault1_N16785958 INV_BASIC_GEN PARAMS: VDD=1 VSS=0
+  VTHRESH=500E-3
X_UT_LMG3410PM_U_Fault1_U97         UT_LMG3410PM_PGOOD UT_LMG3410PM_N01915
+  UT_LMG3410PM_U_Fault1_ALL_GOOD AND2_BASIC_GEN PARAMS: VDD=1 VSS=0
+  VTHRESH=500E-3
X_UT_LMG3410PM_U_Fault1_U112         UT_LMG3410PM_U_Fault1_N16777536
+  UT_LMG3410PM_U_Fault1_N16777550 UT_LMG3410PM_U_Fault1_N16780478
+  UT_LMG3410PM_PGOOD AND3_BASIC_GEN PARAMS: VDD=1 VSS=0 VTHRESH=500E-3
X_UT_LMG3410PM_U_Fault1_U106         UT_LMG3410PM_U_Fault1_N16800340
+  UT_LMG3410PM_U_Fault1_N16802625 UT_LMG3410PM_U_Fault1_N16859326 AND2_BASIC_GEN
+  PARAMS: VDD=1 VSS=0 VTHRESH=500E-3
X_UT_LMG3410PM_U_Fault1_U98         UT_LMG3410PM_U_Fault1_ALL_GOOD
+  UT_LMG3410PM_U_Fault1_ALL_GOOD UT_LMG3410PM_U_Fault1_N16792825 AND2_BASIC_GEN
+  PARAMS: VDD=1 VSS=0 VTHRESH=500E-3
V_UT_LMG3410PM_U_Fault1_V5         UT_LMG3410PM_U_Fault1_ONE 0 1
X_UT_LMG3410PM_U_Fault1_U103         UT_LMG3410PM_U_Fault1_UVLO_VNEG
+  UT_LMG3410PM_U_Fault1_N16777536 INV_BASIC_GEN PARAMS: VDD=1 VSS=0
+  VTHRESH=500E-3
V_UT_LMG3410PM_U_Fault1_V19         UT_LMG3410PM_U_Fault1_N16799356 0  
+PWL 0 0 2n 0 2.5n 1 30n 1 31n 0 
X_UT_LMG3410PM_U_Fault1_U100         UT_LMG3410PM_U_Fault1_N16779894
+  UT_LMG3410PM_N01993 UT_LMG3410PM_U_Fault1_N16777668
+  UT_LMG3410PM_U_Fault1_UVLO_VDD COMPHYS2_BASIC_GEN PARAMS: VDD=1 VSS=0
+  VTHRESH=0.5 T=10
X_UT_LMG3410PM_U_Fault1_U102         UT_LMG3410PM_U_Fault1_UVLO_VDD
+  UT_LMG3410PM_U_Fault1_N16777550 INV_BASIC_GEN PARAMS: VDD=1 VSS=0
+  VTHRESH=500E-3
V_UT_LMG3410PM_U_Fault1_V8         UT_LMG3410PM_U_Fault1_N16777668 0 0.5
X_UT_LMG3410PM_U_Fault1_U99         UT_LMG3410PM_U_Fault1_N16820331
+  UT_LMG3410PM_U_Fault1_ABS_VNEG UT_LMG3410PM_U_Fault1_N16777500
+  UT_LMG3410PM_U_Fault1_UVLO_VNEG COMPHYS2_BASIC_GEN PARAMS: VDD=1 VSS=0
+  VTHRESH=0.5 T=10
V_UT_LMG3410PM_U_Fault1_V11         UT_LMG3410PM_U_Fault1_N16809735 0 0.790
X_UT_LMG3410PM_U_Fault1_U111         UT_LMG3410PM_U_Fault1_FAULT
+  UT_LMG3410PM_FAULT_Z_TOP UT_LMG3410PM_U_Fault1_N16785958
+  UT_LMG3410PM_U_Fault1_ONE UT_LMG3410PM_U_Fault1_N16859326
+  UT_LMG3410PM_U_Fault1_N16785958 DFFSR_30N PARAMS: VDD=1 VSS=0 VTHRESH=0.5
V_UT_LMG3410PM_U_Fault1_V12         UT_LMG3410PM_U_Fault1_N16809754 0 4.55
R_UT_LMG3410PM_R_Pulldown2         LPM_B GND  150k TC=0,0 
E_UT_LMG3410PM_U_Supplies2_E5         UT_LMG3410PM_U_Supplies2_ENABLE_LDO 0
+  UT_LMG3410PM_U_Supplies2_N20213 0 5
V_UT_LMG3410PM_U_Supplies2_V36         UT_LMG3410PM_U_Supplies2_N15861 0 100m
X_UT_LMG3410PM_U_Supplies2_U96         UT_LMG3410PM_LDO_5V_INT
+  UT_LMG3410PM_U_Supplies2_N17939 UT_LMG3410PM_U_Supplies2_N17859
+  UT_LMG3410PM_U_Supplies2_LDO_GOOD COMPHYS2_BASIC_GEN PARAMS: VDD=1 VSS=0
+  VTHRESH=0.5 T=10
E_UT_LMG3410PM_U_Supplies2_E4         UT_LMG3410PM_VNEG_14V 0 VNEG GND 1
E_UT_LMG3410PM_U_Supplies2_E2         UT_LMG3410PM_N02213 0 VDD GND 1
V_UT_LMG3410PM_U_Supplies2_V6         UT_LMG3410PM_U_Supplies2_N17939 0 4.5
R_UT_LMG3410PM_U_Supplies2_U_LDO_R1         UT_LMG3410PM_U_Supplies2_U_LDO_VXX
+  UT_LMG3410PM_U_Supplies2_ENABLE_LDO  10MEG  
E_UT_LMG3410PM_U_Supplies2_U_LDO_ABM1        
+  UT_LMG3410PM_U_Supplies2_U_LDO_N246201 0 VALUE {
+  MIN(V(UT_LMG3410PM_U_Supplies2_U_LDO_VXX),
+  (V(UT_LMG3410PM_U_Supplies2_U_LDO_VZZ)+0.005))    }
R_UT_LMG3410PM_U_Supplies2_U_LDO_R4        
+  UT_LMG3410PM_U_Supplies2_U_LDO_N245745 0  1.216MEG  
R_UT_LMG3410PM_U_Supplies2_U_LDO_R2        
+  UT_LMG3410PM_U_Supplies2_U_LDO_N245781 UT_LMG3410PM_U_Supplies2_U_LDO_VXX  50k
+   
C_UT_LMG3410PM_U_Supplies2_U_LDO_C1         UT_LMG3410PM_U_Supplies2_U_LDO_VXX
+  UT_LMG3410PM_U_Supplies2_ENABLE_LDO  15.9n  
R_UT_LMG3410PM_U_Supplies2_U_LDO_R6        
+  UT_LMG3410PM_U_Supplies2_U_LDO_N246201 UT_LMG3410PM_U_Supplies2_U_LDO_VYY  1
+  TC=0,0 
C_UT_LMG3410PM_U_Supplies2_U_LDO_C2         UT_LMG3410PM_U_Supplies2_U_LDO_VXX
+  UT_LMG3410PM_U_Supplies2_U_LDO_N245781  3.18n  
R_UT_LMG3410PM_U_Supplies2_U_LDO_R5         UT_LMG3410PM_U_Supplies2_U_LDO_VZZ
+  UT_LMG3410PM_U_Supplies2_U_LDO_VYY  0.5  
C_UT_LMG3410PM_U_Supplies2_U_LDO_C3         0
+  UT_LMG3410PM_U_Supplies2_U_LDO_VYY  1n  
R_UT_LMG3410PM_U_Supplies2_U_LDO_R8         UT_LMG3410PM_U_Supplies2_U_LDO_VZZ
+  UT_LMG3410PM_U_Supplies2_U_LDO_N245745  3.784MEG  
X_UT_LMG3410PM_U_Supplies2_U_LDO_F1    UT_LMG3410PM_U_Supplies2_U_LDO_VZZ
+  UT_LMG3410PM_LDO_5V_INT UT_LMG3410PM_U_Supplies2_ENABLE_LDO
+  UT_LMG3410PM_U_Supplies2_U_LDO_VYY LDO_UT_LMG3410PM_U_Supplies2_U_LDO_F1 
R_UT_LMG3410PM_U_Supplies2_U_LDO_U1_R3        
+  UT_LMG3410PM_U_Supplies2_U_LDO_U1_N08164
+  UT_LMG3410PM_U_Supplies2_U_LDO_U1_N05348  1k TC=0,0 
V_UT_LMG3410PM_U_Supplies2_U_LDO_U1_V1        
+  UT_LMG3410PM_U_Supplies2_U_LDO_U1_N29526 0 75m
R_UT_LMG3410PM_U_Supplies2_U_LDO_U1_R2         0
+  UT_LMG3410PM_U_Supplies2_U_LDO_U1_N05382  1G  
X_UT_LMG3410PM_U_Supplies2_U_LDO_U1_U1        
+  UT_LMG3410PM_U_Supplies2_ENABLE_LDO UT_LMG3410PM_U_Supplies2_U_LDO_U1_N29538
+  UT_LMG3410PM_U_Supplies2_U_LDO_U1_N29526
+  UT_LMG3410PM_U_Supplies2_U_LDO_U1_N11113 COMPHYS_BASIC_GEN PARAMS: VDD=1 VSS=0
+  VTHRESH=0.5
X_UT_LMG3410PM_U_Supplies2_U_LDO_U1_U2        
+  UT_LMG3410PM_U_Supplies2_ENABLE_LDO UT_LMG3410PM_U_Supplies2_U_LDO_U1_N12783
+  UT_LMG3410PM_U_Supplies2_U_LDO_U1_N12664
+  UT_LMG3410PM_U_Supplies2_U_LDO_U1_N13377 COMPHYS_BASIC_GEN PARAMS: VDD=1 VSS=0
+  VTHRESH=0.5
V_UT_LMG3410PM_U_Supplies2_U_LDO_U1_V2        
+  UT_LMG3410PM_U_Supplies2_U_LDO_U1_N29538 0 1.2
E_UT_LMG3410PM_U_Supplies2_U_LDO_U1_ABM6        
+  UT_LMG3410PM_U_Supplies2_U_LDO_U1_N08164 0 VALUE {
+  IF(V(UT_LMG3410PM_U_Supplies2_U_LDO_U1_N13377)> 0.6 &
+  V(UT_LMG3410PM_U_Supplies2_U_LDO_U1_N11113) > 0.6, 1.216, 0)    }
R_UT_LMG3410PM_U_Supplies2_U_LDO_U1_R5        
+  UT_LMG3410PM_U_Supplies2_U_LDO_U1_N09745
+  UT_LMG3410PM_U_Supplies2_U_LDO_N245781  1k TC=0,0 
R_UT_LMG3410PM_U_Supplies2_U_LDO_U1_R4        
+  UT_LMG3410PM_U_Supplies2_U_LDO_U1_N09035
+  UT_LMG3410PM_U_Supplies2_U_LDO_U1_N05382  1k TC=0,0 
E_UT_LMG3410PM_U_Supplies2_U_LDO_U1_ABM4        
+  UT_LMG3410PM_U_Supplies2_U_LDO_U1_N09035 0 VALUE {
+  V(UT_LMG3410PM_U_Supplies2_U_LDO_U1_N05348)  
+ * V(UT_LMG3410PM_LDO_5V_INT)  
+ / (V(UT_LMG3410PM_U_Supplies2_U_LDO_N245745) + 1e-6)  }
E_UT_LMG3410PM_U_Supplies2_U_LDO_U1_ABM5        
+  UT_LMG3410PM_U_Supplies2_U_LDO_U1_N09745 0 VALUE {
+  MIN(V(UT_LMG3410PM_U_Supplies2_U_LDO_U1_N05382),  
+ MAX(V(UT_LMG3410PM_U_Supplies2_ENABLE_LDO) - 0.140, 0))   }
V_UT_LMG3410PM_U_Supplies2_U_LDO_U1_V3        
+  UT_LMG3410PM_U_Supplies2_U_LDO_U1_N12664 0 75m
C_UT_LMG3410PM_U_Supplies2_U_LDO_U1_C3         0
+  UT_LMG3410PM_U_Supplies2_U_LDO_N245781  1n  
C_UT_LMG3410PM_U_Supplies2_U_LDO_U1_C1         0
+  UT_LMG3410PM_U_Supplies2_U_LDO_U1_N05348  1n  
C_UT_LMG3410PM_U_Supplies2_U_LDO_U1_C2         0
+  UT_LMG3410PM_U_Supplies2_U_LDO_U1_N05382  1n  
R_UT_LMG3410PM_U_Supplies2_U_LDO_U1_R1         0
+  UT_LMG3410PM_U_Supplies2_U_LDO_U1_N05348  1G  
V_UT_LMG3410PM_U_Supplies2_U_LDO_U1_V4        
+  UT_LMG3410PM_U_Supplies2_U_LDO_U1_N12783 0 1.2
V_UT_LMG3410PM_U_Supplies2_V37         UT_LMG3410PM_U_Supplies2_N17859 0 100m
X_UT_LMG3410PM_U_Supplies2_UBB_U103        
+  UT_LMG3410PM_U_Supplies2_UBB_N348326 UT_LMG3410PM_U_Supplies2_LDO_GOOD
+  UT_LMG3410PM_U_Supplies2_UBB_N17995 AND2_BASIC_GEN PARAMS: VDD=1 VSS=0
+  VTHRESH=500E-3
R_UT_LMG3410PM_U_Supplies2_UBB_R19         VNEG
+  UT_LMG3410PM_U_Supplies2_UBB_N17933  1 TC=0,0 
V_UT_LMG3410PM_U_Supplies2_UBB_V36         UT_LMG3410PM_U_Supplies2_UBB_N348226
+  0 10m
C_UT_LMG3410PM_U_Supplies2_UBB_C6         GND
+  UT_LMG3410PM_U_Supplies2_UBB_N17933  2.1n IC=0 TC=0,0 
V_UT_LMG3410PM_U_Supplies2_UBB_V5         UT_LMG3410PM_U_Supplies2_UBB_N348306
+  0 4
X_UT_LMG3410PM_U_Supplies2_UBB_U104         VNEG GND zener PARAMS: 
I_UT_LMG3410PM_U_Supplies2_UBB_I3         VNEG
+  UT_LMG3410PM_U_Supplies2_UBB_N17647 DC 40m  
X_UT_LMG3410PM_U_Supplies2_UBB_S17    UT_LMG3410PM_U_Supplies2_UBB_N17937 0
+  UT_LMG3410PM_U_Supplies2_UBB_N17933 GND
+  BB_Startup_UT_LMG3410PM_U_Supplies2_UBB_S17 
R_UT_LMG3410PM_U_Supplies2_UBB_R18         GND
+  UT_LMG3410PM_U_Supplies2_UBB_N17647  1 TC=0,0 
X_UT_LMG3410PM_U_Supplies2_UBB_U102         UT_LMG3410PM_U_Supplies2_UBB_N17995
+  UT_LMG3410PM_U_Supplies2_UBB_N17937 INV_BASIC_GEN PARAMS: VDD=1 VSS=0
+  VTHRESH=500E-3
R_UT_LMG3410PM_U_Supplies2_UBB_R17         GND BBSW  10 TC=0,0 
X_UT_LMG3410PM_U_Supplies2_UBB_U95        
+  UT_LMG3410PM_U_Supplies2_LPM_B_SHIFTED UT_LMG3410PM_U_Supplies2_UBB_N348306
+  UT_LMG3410PM_U_Supplies2_UBB_N348226 UT_LMG3410PM_U_Supplies2_UBB_N348326
+  COMPHYS2_BASIC_GEN PARAMS: VDD=1 VSS=0 VTHRESH=0.5 T=10
R_UT_LMG3410PM_U_Supplies2_U2_R22         UT_LMG3410PM_U_Supplies2_U2_N347815
+  UT_LMG3410PM_U_Supplies2_U2_N347663  1 TC=0,0 
I_UT_LMG3410PM_U_Supplies2_U2_I3         VDD
+  UT_LMG3410PM_U_Supplies2_U2_N345745 DC 500u  
X_UT_LMG3410PM_U_Supplies2_U2_S13    UT_LMG3410PM_U_Supplies2_LPM_B_SHIFTED 0
+  UT_LMG3410PM_U_Supplies2_U2_N345745 GND
+  VDD_DrawnI_UT_LMG3410PM_U_Supplies2_U2_S13 
X_UT_LMG3410PM_U_Supplies2_U2_U15         UT_LMG3410PM_U_Supplies2_U2_N347815
+  UT_LMG3410PM_U_Supplies2_U2_N346917 d_d PARAMS:
X_UT_LMG3410PM_U_Supplies2_U2_H1    UT_LMG3410PM_U_Supplies2_U2_N346077
+  UT_LMG3410PM_U_Supplies2_U2_N347663 UT_LMG3410PM_U_Supplies2_U2_I_MONITORED 0
+  VDD_DrawnI_UT_LMG3410PM_U_Supplies2_U2_H1 
R_UT_LMG3410PM_U_Supplies2_U2_R21         UT_LMG3410PM_U_Supplies2_U2_N347311
+  UT_LMG3410PM_U_Supplies2_U2_N346077  20 TC=0,0 
C_UT_LMG3410PM_U_Supplies2_U2_C16         GND
+  UT_LMG3410PM_U_Supplies2_U2_N347663  1.75n TC=0,0 
X_UT_LMG3410PM_U_Supplies2_U2_S14    UT_LMG3410PM_U_Supplies2_U2_LPM_B 0
+  UT_LMG3410PM_U_Supplies2_U2_N345749 GND
+  VDD_DrawnI_UT_LMG3410PM_U_Supplies2_U2_S14 
G_UT_LMG3410PM_U_Supplies2_U2_G1         VDD
+  UT_LMG3410PM_U_Supplies2_U2_N345745 UT_LMG3410PM_U_Supplies2_U2_N352114 0 1
C_UT_LMG3410PM_U_Supplies2_U2_C17         GND
+  UT_LMG3410PM_U_Supplies2_U2_N352114  1n  TC=0,0 
R_UT_LMG3410PM_U_Supplies2_U2_R23         UT_LMG3410PM_U_Supplies2_U2_N357811
+  UT_LMG3410PM_U_Supplies2_U2_N352114  1 TC=0,0 
X_UT_LMG3410PM_U_Supplies2_U2_U13         UT_LMG3410PM_IN_SHIFTED_TOP 0
+  UT_LMG3410PM_U_Supplies2_U2_N346917 GND VCVS_LIMIT PARAMS:  GAIN=10 VPOS=10
+  VNEG=0
I_UT_LMG3410PM_U_Supplies2_U2_I2         VDD
+  UT_LMG3410PM_U_Supplies2_U2_N345749 DC 58u  
E_UT_LMG3410PM_U_Supplies2_U2_ABM1         UT_LMG3410PM_U_Supplies2_U2_N357811
+  0 VALUE { ( V(UT_LMG3410PM_U_Supplies2_U2_I_MONITORED)  
+ *12) /V(UT_LMG3410PM_U_Supplies2_U2_VDD_SHIFTED)    }
X_UT_LMG3410PM_U_Supplies2_U2_U11         UT_LMG3410PM_U_Supplies2_U2_N345749
+  VDD d_d PARAMS:
E_UT_LMG3410PM_U_Supplies2_U2_E2        
+  UT_LMG3410PM_U_Supplies2_U2_VDD_SHIFTED 0 VDD GND 1
X_UT_LMG3410PM_U_Supplies2_U2_U12         UT_LMG3410PM_U_Supplies2_U2_N345745
+  VDD d_d PARAMS:
X_UT_LMG3410PM_U_Supplies2_U2_U14         UT_LMG3410PM_U_Supplies2_U2_N346917
+  UT_LMG3410PM_U_Supplies2_U2_N347311 d_d PARAMS:
E_UT_LMG3410PM_U_Supplies2_E3         UT_LMG3410PM_N406283 GND
+  UT_LMG3410PM_LDO_5V_INT 0 1
E_UT_LMG3410PM_U_Supplies2_E7         UT_LMG3410PM_U_Supplies2_LPM_B_SHIFTED 0
+  LPM_B GND 1
X_UT_LMG3410PM_U_Supplies2_U95         UT_LMG3410PM_N02213
+  UT_LMG3410PM_U_Supplies2_N15941 UT_LMG3410PM_U_Supplies2_N15861
+  UT_LMG3410PM_U_Supplies2_N20213 COMPHYS2_BASIC_GEN PARAMS: VDD=1 VSS=0
+  VTHRESH=0.5 T=10
V_UT_LMG3410PM_U_Supplies2_V5         UT_LMG3410PM_U_Supplies2_N15941 0 9.5
R_UT_LMG3410PM_R_probet3         UT_LMG3410PM_N02203 UT_LMG3410PM_N02173  0.1m
+  TC=0,0 
X_UT_LMG3410PM_U_Ilim1_U98         UT_LMG3410PM_U_Ilim1_N16791862
+  UT_LMG3410PM_U_Ilim1_I_LIMIT BUF_DELAY_BASIC_GEN PARAMS: VDD=1 VSS=0
+  VTHRESH=0.5 DELAY=50n
X_UT_LMG3410PM_U_Ilim1_U95         UT_LMG3410PM_I_DETECT_T
+  UT_LMG3410PM_U_Ilim1_N16859462 UT_LMG3410PM_U_Ilim1_N16859418
+  UT_LMG3410PM_U_Ilim1_N16860466 COMPHYS2_BASIC_GEN PARAMS: VDD=1 VSS=0
+  VTHRESH=0.5 T=10
X_UT_LMG3410PM_U_Ilim1_U62         UT_LMG3410PM_U_Ilim1_N16788617
+  UT_LMG3410PM_U_Ilim1_N16800454 one_shot PARAMS:  T=10000
V_UT_LMG3410PM_U_Ilim1_V36         UT_LMG3410PM_U_Ilim1_N16859418 0 10m
V_UT_LMG3410PM_U_Ilim1_V5         UT_LMG3410PM_U_Ilim1_N16859462 0 21
X_UT_LMG3410PM_U_Ilim1_U92         UT_LMG3410PM_U_Ilim1_N16859491
+  UT_LMG3410PM_U_Ilim1_N16860466 UT_LMG3410PM_U_Ilim1_N16859356 AND2_BASIC_GEN
+  PARAMS: VDD=1 VSS=0 VTHRESH=500E-3
V_UT_LMG3410PM_U_Ilim1_V4         UT_LMG3410PM_U_Ilim1_ONE 0 1
X_UT_LMG3410PM_U_Ilim1_U99         UT_LMG3410PM_U_Ilim1_N16792007
+  UT_LMG3410PM_N01915 BUF_DELAY_BASIC_GEN PARAMS: VDD=1 VSS=0 VTHRESH=0.5
+  DELAY=50n
R_UT_LMG3410PM_U_Ilim1_R6         UT_LMG3410PM_U_Ilim1_N16859491
+  UT_LMG3410PM_GATE_DRV_T  72.46e3  
X_UT_LMG3410PM_U_Ilim1_U111         UT_LMG3410PM_U_Ilim1_N16800454
+  UT_LMG3410PM_U_Ilim1_N16797368 UT_LMG3410PM_U_Ilim1_RESET OR2_BASIC_GEN
+  PARAMS: VDD=1 VSS=0 VTHRESH=500E-3
X_UT_LMG3410PM_U_Ilim1_U112         UT_LMG3410PM_U_Ilim1_N16859468
+  UT_LMG3410PM_U_Ilim1_RESET UT_LMG3410PM_U_Ilim1_N16791862
+  UT_LMG3410PM_U_Ilim1_N16792007 SRLATCHSHP_BASIC_GEN PARAMS: VDD=1 VSS=0
+  VTHRESH=0.5
X_UT_LMG3410PM_U_Ilim1_D66         UT_LMG3410PM_U_Ilim1_N16859491
+  UT_LMG3410PM_GATE_DRV_T d_d1 PARAMS: 
C_UT_LMG3410PM_U_Ilim1_C17         0 UT_LMG3410PM_U_Ilim1_N16859491  4p  TC=0,0
+  
X_UT_LMG3410PM_U_Ilim1_U63         UT_LMG3410PM_PGOOD
+  UT_LMG3410PM_U_Ilim1_N16797368 one_shot PARAMS:  T=10000
X_UT_LMG3410PM_U_Ilim1_S18    UT_LMG3410PM_IN_BUFFERED_TOP 0
+  UT_LMG3410PM_U_Ilim1_N16788617 0 Current_Limit_UT_LMG3410PM_U_Ilim1_S18 
C_UT_LMG3410PM_U_Ilim1_C16         0 UT_LMG3410PM_U_Ilim1_N16788617  1n  TC=0,0
+  
V_UT_LMG3410PM_U_Ilim1_V6         UT_LMG3410PM_U_Ilim1_N16866945 0 1
X_UT_LMG3410PM_U_Ilim1_U100         UT_LMG3410PM_U_Ilim1_N16859356
+  UT_LMG3410PM_U_Ilim1_N16859379 BUF_DELAY_BASIC_GEN PARAMS: VDD=1 VSS=0
+  VTHRESH=0.5 DELAY=100n
R_UT_LMG3410PM_U_Ilim1_R21         UT_LMG3410PM_U_Ilim1_N16866694
+  UT_LMG3410PM_U_Ilim1_N16788617  300k TC=0,0 
X_UT_LMG3410PM_U_Ilim1_S17    UT_LMG3410PM_U_Ilim1_N16866362 0
+  UT_LMG3410PM_U_Ilim1_N16866945 UT_LMG3410PM_U_Ilim1_N16866694
+  Current_Limit_UT_LMG3410PM_U_Ilim1_S17 
X_UT_LMG3410PM_U_Ilim1_U93         UT_LMG3410PM_U_Ilim1_N16859356
+  UT_LMG3410PM_U_Ilim1_N16859379 UT_LMG3410PM_U_Ilim1_N16859468 AND2_BASIC_GEN
+  PARAMS: VDD=1 VSS=0 VTHRESH=500E-3
X_UT_LMG3410PM_U_Ilim1_U102         UT_LMG3410PM_IN_BUFFERED_TOP
+  UT_LMG3410PM_U_Ilim1_N16866362 INV_BASIC_GEN PARAMS: VDD=1 VSS=0
+  VTHRESH=500E-3
.IC         V(UT_LMG3410PM_N02815 )=0
.IC         V(UT_LMG3410PM_LDMOS_GATE_TOP )=1

.ends  lmg3410R150
************************************************************








.subckt LMG3410_PM_UT_LMG3410PM_H2 1 2 3 4  
H_UT_LMG3410PM_H2         3 4 VH_UT_LMG3410PM_H2 1
VH_UT_LMG3410PM_H2         1 2 0V
.ends LMG3410_PM_UT_LMG3410PM_H2

.subckt GaN_Driver_UT_LMG3410PM_U_Driver_S20 1 2 3 4  
S_UT_LMG3410PM_U_Driver_S20         3 4 1 2 _UT_LMG3410PM_U_Driver_S20
RS_UT_LMG3410PM_U_Driver_S20         1 2 1G
.MODEL         _UT_LMG3410PM_U_Driver_S20 VSWITCH Roff=1e9 Ron=7m Voff=0.1
+  Von=0.9
.ends GaN_Driver_UT_LMG3410PM_U_Driver_S20

.subckt Isr_Conversion_UT_LMG3410PM_U_Driver_U_Rsr_H1 1 2 3 4  
H_UT_LMG3410PM_U_Driver_U_Rsr_H1         3 4 VH_UT_LMG3410PM_U_Driver_U_Rsr_H1
+  1
VH_UT_LMG3410PM_U_Driver_U_Rsr_H1         1 2 0V
.ends Isr_Conversion_UT_LMG3410PM_U_Driver_U_Rsr_H1

.subckt GaN_Driver_UT_LMG3410PM_U_Driver_F5 1 2 3 4  
F_UT_LMG3410PM_U_Driver_F5         3 4 VF_UT_LMG3410PM_U_Driver_F5 5000
VF_UT_LMG3410PM_U_Driver_F5         1 2 0V
.ends GaN_Driver_UT_LMG3410PM_U_Driver_F5

.subckt GaN_Driver_UT_LMG3410PM_U_Driver_S19 1 2 3 4  
S_UT_LMG3410PM_U_Driver_S19         3 4 1 2 _UT_LMG3410PM_U_Driver_S19
RS_UT_LMG3410PM_U_Driver_S19         1 2 1G
.MODEL         _UT_LMG3410PM_U_Driver_S19 VSWITCH Roff=1e9 Ron=1m Voff=0.2V
+  Von=0.8V
.ends GaN_Driver_UT_LMG3410PM_U_Driver_S19

.subckt LDO_UT_LMG3410PM_U_Supplies2_U_LDO_F1 1 2 3 4  
F_UT_LMG3410PM_U_Supplies2_U_LDO_F1         3 4
+  VF_UT_LMG3410PM_U_Supplies2_U_LDO_F1 1
VF_UT_LMG3410PM_U_Supplies2_U_LDO_F1         1 2 0V
.ends LDO_UT_LMG3410PM_U_Supplies2_U_LDO_F1

.subckt BB_Startup_UT_LMG3410PM_U_Supplies2_UBB_S17 1 2 3 4  
S_UT_LMG3410PM_U_Supplies2_UBB_S17         3 4 1 2
+  _UT_LMG3410PM_U_Supplies2_UBB_S17
RS_UT_LMG3410PM_U_Supplies2_UBB_S17         1 2 1G
.MODEL         _UT_LMG3410PM_U_Supplies2_UBB_S17 VSWITCH Roff=1e6 Ron=7m
+  Voff=0.0V Von=1.0V
.ends BB_Startup_UT_LMG3410PM_U_Supplies2_UBB_S17

.subckt VDD_DrawnI_UT_LMG3410PM_U_Supplies2_U2_S13 1 2 3 4  
S_UT_LMG3410PM_U_Supplies2_U2_S13         3 4 1 2
+  _UT_LMG3410PM_U_Supplies2_U2_S13
RS_UT_LMG3410PM_U_Supplies2_U2_S13         1 2 1G
.MODEL         _UT_LMG3410PM_U_Supplies2_U2_S13 VSWITCH Roff=1e6 Ron=7m Voff=0
+  Von=1
.ends VDD_DrawnI_UT_LMG3410PM_U_Supplies2_U2_S13

.subckt VDD_DrawnI_UT_LMG3410PM_U_Supplies2_U2_H1 1 2 3 4  
H_UT_LMG3410PM_U_Supplies2_U2_H1         3 4 VH_UT_LMG3410PM_U_Supplies2_U2_H1
+  1
VH_UT_LMG3410PM_U_Supplies2_U2_H1         1 2 0V
.ends VDD_DrawnI_UT_LMG3410PM_U_Supplies2_U2_H1

.subckt VDD_DrawnI_UT_LMG3410PM_U_Supplies2_U2_S14 1 2 3 4  
S_UT_LMG3410PM_U_Supplies2_U2_S14         3 4 1 2
+  _UT_LMG3410PM_U_Supplies2_U2_S14
RS_UT_LMG3410PM_U_Supplies2_U2_S14         1 2 1G
.MODEL         _UT_LMG3410PM_U_Supplies2_U2_S14 VSWITCH Roff=1e6 Ron=7m Voff=0
+  Von=1
.ends VDD_DrawnI_UT_LMG3410PM_U_Supplies2_U2_S14

.subckt Current_Limit_UT_LMG3410PM_U_Ilim1_S18 1 2 3 4  
S_UT_LMG3410PM_U_Ilim1_S18         3 4 1 2 _UT_LMG3410PM_U_Ilim1_S18
RS_UT_LMG3410PM_U_Ilim1_S18         1 2 1G
.MODEL         _UT_LMG3410PM_U_Ilim1_S18 VSWITCH Roff=1e6 Ron=7m Voff=0.0V
+  Von=1.0V
.ends Current_Limit_UT_LMG3410PM_U_Ilim1_S18

.subckt Current_Limit_UT_LMG3410PM_U_Ilim1_S17 1 2 3 4  
S_UT_LMG3410PM_U_Ilim1_S17         3 4 1 2 _UT_LMG3410PM_U_Ilim1_S17
RS_UT_LMG3410PM_U_Ilim1_S17         1 2 1G
.MODEL         _UT_LMG3410PM_U_Ilim1_S17 VSWITCH Roff=1e6 Ron=7m Voff=0.0V
+  Von=1.0V
.ends Current_Limit_UT_LMG3410PM_U_Ilim1_S17

************************************************************
.subckt d_d 1 2

d1 1 2 dd1

.model dd1 d
+ is=1e-015
+ tt=1e-011
+ rs=0.05
+ n=0.1

.ends d_d
*$
************************************************************

.model d_d1 d  is=1e-015  tt=1e-011 rs=0.05 n=0.1

************************************************************

.subckt d_d1 1 2

d1 1 2 dd1

.model dd1 d
+ is=1e-015
+ tt=1e-011
+ rs=0.05
+ n=0.1

.ends d_d1
*$
************************************************************
.SUBCKT delay_basic out inp PARAMS: 
+  tdr = 5e-9 
+  ttr = 2e-9 
+  tdf = 5e-9 
+  ttf = 2e-9 
V1  n1   0  DC 1
S1  n1  n2  inp  0 SW1
S2  n2   0  inp  0 SW2
C1  n2  n3  1n
E1  n3   0  n5   0 0.5
E2  n4   0  VALUE { IF(V(n2)>0.5, 1, 0) }
R2  n4 out  1
C2  out  0  { 0.361*(ttr + ttf)}
R3  n4  n5  0.1
C3  n5   0  { 0.361*(ttr + ttf)}
.MODEL SW1 VSWITCH Roff={1.44e15*tdr} Ron={1.44e9*tdr} Voff=0.3 Von=0.7
.MODEL SW2 VSWITCH Roff={1.44e15*tdf} Ron={1.44e9*tdf} Voff=0.7 Von=0.3
.ENDS delay_basic 

****************************************************************
.SUBCKT ONE_SHOT IN OUT
+ PARAMs:  T=100
S_S1         MEAS 0 RESET2 0 S1
E_ABM1         CH 0 VALUE { if( V(IN)>0.5 | V(OUT)>0.5,1,0)    }
R_R2         RESET2 RESET  0.1  
E_ABM3         OUT 0 VALUE { if( V(MEAS)<0.5 & V(CH)>0.5,1,0)    }
R_R1         MEAS CH  {T} 
C_C2         0 RESET2  1.4427n  
C_C1         0 MEAS  1.4427n  
E_ABM2         RESET 0 VALUE { if(V(CH)<0.5,1,0)    }
.MODEL         S1 VSWITCH Roff=1e9 Ron=1.0 Voff=0.25V Von=0.75V
.ENDS ONE_SHOT




****************************************************************************************ALDD18xx**

**ALDD18**
.SUBCKT POWER_N_MOSFET drain gate source 
+ PARAMS: T=27
* Cgd =  -> Gate to drain Capacitance fit to approximate gate charge
* Cgs =  -> Gate to source Capacitance
* Cj0 = Cds  -> Approximated Source to Drain Capacitance at Vds=0 (by given Coss at certain Vds)
* VdsMax = 600.0 V -> Maximum drain to source Voltage
* RdsON = (2 * 0.035 ) Ohms -> MOSFET on resistance
* Rgate = 0.2 Ohms -> Gate Resistance
* Vth = 1.5 V -> Threshold Voltage
* Ciss =Cgd+ Cgs
* Coss =Cds+ Cgd
* Crss =Cgd
Cgd g d 1E-12
M1 d g s s _M1_modX L=1u W=1u
.MODEL _M1_modX NMOS CGDO=0 CGSO=0 KP=10 RD=0 RS=0
+ TOX=1E-7 UO=400 VTO=1.5  
Dnew  Drain dx   DIDEAL
.model DIDEAL D Is=1e-12 N=0.145  Cjo=.1pF Rs=.0001  
Rds2 source s {0.010*(1+0.0090*(T-27))}
Rds1 Dx d {0.118*(1+0.0090*(T-27))}
RG gate g 0.2
Cgs g s 0.4E-9
Ileakage d s 10u
Varash Node1 0 {T}
Rdummy Node1 0 1Meg
*Ileakage d s 5m
*Rleakage d s 68k
Dbd source drain  Dbt
.MODEL Dbt D (BV= 600.0 CJO= 99E-15 Is=25e-12   M=0.35 N=8.77 VJ= 0.8 TT=10p Rs=0.02  )
** changed 99p to 99f so can be added to Var-CAP, N=11.27 to shift Vf to 7.8V & 10A
X_S17    COMP_OUT  0  Drain  DX  Fake_SW_DIODE_S17 
X_U103         VGS_INT N350958 COMP_OUT COMP_BASIC_GEN PARAMS: VDD=1 VSS=0
+  VTHRESH=0.5
V_V37         N350958 0 10
E_E1         VGS_INT 0 Gate Source 1
.ends POWER_N_MOSFET

.subckt Fake_SW_DIODE_S17 1 2 3 4  
S_S17         3 4 1 2 _S17
RS_S17         1 2 1G
.MODEL         _S17 VSWITCH Roff=1e6 Ron=7m Voff=0.0V Von=1.0V
.ends Fake_SW_DIODE_S17

****************************************************************
*$
.SUBCKT VARICAP 1 2 CTRL
R1 1 3 1u
VC 3 4 0
EBC 4 2 Value = {(1/v(CTRL))*v(INT) }
GINT 0 INT Value ={I(VC)}
CINT INT 0 1
Rdum INT 0 10E10
.ENDS VARICAP
*$
****************************************************************
* PSpice Model Editor - Version 16.2.0

*$
.SUBCKT Vds_Var_Cap Vds VCds  
E_MUX    VCds 0 VALUE = {IF (  V(Vds)  < = 10, 630e-12, 
+ IF (  V(Vds)  >  10 & V(Vds) < = 40, 350e-12, 
+ IF (  (V(Vds) >  40 & V(Vds) < = 60) , ((-5p*V(Vds))+550p), 
+ IF (  (V(Vds) > 60 & V(Vds) < = 130.000001) , 250e-12, 
+ IF (  (V(Vds) > 130.0000011 & V(Vds) < = 150) ,((-7p*V(Vds))+1160p), 110e-12 ) ))))}
.ENDS Vds_Var_Cap
*$
****************************************************************
* PSpice Model Editor - Version 16.2.0
****************************************************************
*$
* PSpice Model Editor - Version 16.2.0
.subckt  F_to_V Vin Vout LPM
V1          2 0 20
SW1         2 0 LPM 0  S_VSWITCH_1