*//////////////////////////////////////////////////////////////////////
* (C) National Semiconductor, Corporation.
* Models developed and under copyright by:
* National Semiconductor, Corporation.  
*/////////////////////////////////////////////////////////////////////
* Legal Notice:  
* The model may be copied, and distributed without any modifications;
* however, reselling or licensing the material is illegal.
* We reserve the right to make changes to the model without prior notice. 
* Pspice Models are provided "AS IS, WITH NO WARRANTY OF ANY KIND" 
*////////////////////////////////////////////////////////////////////
* For more information, and our latest models,
* please visit the models section of our website at
*       http://www.national.com/models/
*////////////////////////////////////////////////////////////////////
* BEGIN MODEL LMH6628
* MODEL IS FOR A AMP ONLY
* PINOUT ORDER  +IN -IN +V -V OUT
* PINOUT ORDER   3   2   8  4  1
.SUBCKT LMH6628 3 2 8 4 1
R51 33 0 1E9
Q17 4 9 10 QOP
Q21 8 11 10 QON
D5 1 8 DD
D6 4 1 DD
D7 12 0 DIN
D8 13 0 DIN
I8 0 12 0.1E-3
I9 0 13 0.1E-3
E2 14 0 4 0 1
E3 15 0 8 0 1
D9 16 0 DVN
D10 17 0 DVN
I10 0 16 0.1E-3
I11 0 17 0.1E-3
E4 18 2 16 17 0.67
G2 3 18 12 13 9.5E-4
R22 4 8 20E3
E5 19 0 15 0 1
E6 20 0 14 0 1
E7 21 0 22 0 1
R30 19 23 1E4
R31 20 24 1E4
R32 21 25 1E4
R33 0 23 1
R34 0 24 1
R35 0 25 1
E10 26 3 25 0 -2
C6 19 23 100E-12
C7 20 24 100E-12
C8 21 25 200E-12
E11 27 26 24 0 1.1
E12 28 27 23 0 1.1
Q22 14 29 11 QDP
Q23 15 29 9 QDN
I12 8 4 6.64E-3
I13 15 11 2E-3
I14 9 14 2E-3
R38 0 30 10
R39 0 29 10
C9 30 0 55E-12
C10 29 0 15E-12
E15 31 32 33 0 1
E16 32 34 33 0 1
E17 35 0 32 0 1
D11 36 15 DD
D12 14 37 DD
V11 34 37 1.65
V12 36 31 1.65
I15 0 38 1M
D13 38 0 DD
V13 33 38 -0.655
C11 32 0 6E-12
D14 39 40 DD
D15 40 41 DD
R40 40 32 185
R41 0 40 250E3
F1 40 0 V14 -0.8
E18 42 0 43 0 0.99995
R42 42 44 110
E19 45 0 18 0 1
C12 18 0 1.5E-12
C13 28 0 1.5E-12
V14 44 45 0
R43 10 46 5
G3 30 0 32 0 0.1
G4 29 0 30 0 0.1
C14 10 0 2E-12
L1 46 1 2E-9
R45 46 1 50
E20 39 35 33 0 1
E21 41 35 33 0 -1
I16 18 0 0.7E-6
I17 28 0 1E-6
V15 43 28 0.5E-3
D16 18 47 DD
D17 28 47 DD
D18 48 18 DD
D19 48 28 DD
V16 49 47 1.85
V17 48 50 1.85
E23 51 0 3 0 1
E24 52 0 18 0 1
R47 22 51 1E3
R48 52 22 1E3
E25 15 49 33 0 1
E26 50 14 33 0 1
C15 18 28 0.5E-12
R49 2 53 10
C16 53 1 0.1E-12
C17 43 0 0.01E-12
.MODEL QDP PNP
.MODEL QDN NPN
.MODEL DD D
.MODEL DVN D KF=1.7E-15
.MODEL DIN D KF=3.3E-15
.MODEL QON NPN VAF=150 BF=70 IKF=0.7 RE=1 RC=1
.MODEL QOP PNP VAF=150 BF=70 IKF=0.7 RE=1 RC=1
.ENDS
* END MODEL LMH6628
