*//////////////////////////////////////////////////////////////////////
* (C) National Semiconductor, Corporation.
* Models developed and under copyright by:
* National Semiconductor, Corporation.
*/////////////////////////////////////////////////////////////////////
* Legal Notice:
* The model may be copied, and distributed without any modifications;
* however, reselling or licensing the material is illegal.
* We reserve the right to make changes to the model without prior notice.
* Pspice Models are provided "AS IS, WITH NO WARRANTY OF ANY KIND"
*////////////////////////////////////////////////////////////////////
* For more information, and our latest models,
* please visit the models section of our website at
*       http://www.national.com/models/
*////////////////////////////////////////////////////////////////////
* This is a Monolithic Wide band Variable Gain Amplifier.
* The model below is the CLC522 renamed as LMH6503 (The LMH6503 is a replacement for the CLC522)
* This model simulates the behavior of the LMH6503 for +/-5V supplies only
* LMH6503 SPICE MODEL
* PINOUT ORDER IS:
* +VCC Vg +Vin +Rg -Rg -Vin -VEE Vref Vout I-
*
.SUBCKT LMH6503 1  2  3  4  5  6  7  9  10  12
*
*   Other pins on 14-pin DIP:
*      8  = -Vee
*      11 = Gnd
*      13 = +Vcc
*      14 = +Vcc
*
* SIGNAL INPUT STAGE
*
V3 1 24 3.30
Q2 24 25 26 QINN
E1 3 25 POLY(2) 61 0 62 0 1.00M 3.67 3.67
C2 3 0 1.00P
C3 3 12 4.3F
R3 26 7 3.535K
V4 1 27 3.30
Q3 27 6 28 QINN
C5 6 0 1.00P
C4 6 12 5.6F
R4 28 7 3.465K
*
E2 29 0 POLY(1) 26 0 0 1.0001
G1 29 30 POLY(1) 29 30 0 0.667
L1 30 4 30N
R5 30 4 150
R6 4 0 10MEG
C6 4 0 1.00P
C7 4 5 500F
*
E3 31 0 POLY(1) 28 0 0 0.9999
G2 31 32 POLY(2) 31 32 35 34 0 1.000 3.187M
R7 32 0 10MEG
G3 32 33 POLY(1) 32 33 0 2.000
L2 33 5 30N
R8 33 5 150
R9 5 0 10MEG
C8 5 0 1.00P
*
E4 34 0 POLY(1) 31 32 0 313.8
R10 34 35 10.0
D1 35 36 DZ
V5 36 0 -465M
D2 37 35 DZ
V6 37 0 465M
*
* GAIN INPUT
*
V1 1 20 2.80
R1 2 21 50.0
C1 2 0 1.00P
Q1 20 21 22 QINN
R2 22 23 770
V2 23 7 2.61
*
E5 38 0 POLY(1) 22 0 71.20 98.00
R11 38 39 10.0
D3 39 40 DZ
V7 40 0 93.50
D4 41 39 DZ
V8 41 0 -105.00
*
* MULTIPLIER STAGE
*
V9 1 42 2.80
D5 42 43 DZ
C9 43 0 250F
G4 43 7 POLY(1) 39 0 552.0U 5.520U 250P
V10 1 44 2.80
D6 44 45 DZ
C10 45 0 250F
G5 45 7 POLY(1) 39 0 552.0U -5.520U -250P
*
R12 1 46 240
C11 46 0 450F
C12 46 49 210F
R14 49 0 40.0
C13 49 12 210F
Q4 46 45 47 QMULT 2.00
Q5 1 43 47 QMULT 2.00
C17 47 0 250F
G6 47 7 POLY(4) 1 7 29 30 63 0 64 0
+ -139.4U 185.8U 666.7M 15.0M 15.0M
*
R13 1 48 240
C14 48 0 450F
C15 48 12 210F
C16 12 0 1.00P
Q6 48 45 50 QMULT 2.00
Q7 1 43 50 QMULT 2.00
C18 50 0 250F
G7 50 7 POLY(4) 1 7 32 33 65 0 66 0
+ -139.4U 185.8U 2.000 15.0M 15.0M
G8 1 12 POLY(4) 1 46 1 48 67 0 68 0
+ 0 -4.167M 4.167M 22.4M 22.4M
*
* AMPLIFIER INPUT STAGE
*
R17 1 54 8.00K
D8 54 55 DZ
R18 9 55 50.0
C22 9 0 1.00P
Q8 51 54 12 QINN
*
D9 55 56 DZ
R19 56 7 8.00K
Q9 52 56 12 QINP
*
* AMPLIFIER GAIN STAGE
*
R15 1 51 497
C19 51 58 250F
C20 51 0 500F
C21 51 10 100F
G9 1 58 POLY(1) 1 51 0 8.048M
V11 1 53 1.60
D7 58 53 DX
G11 1 59 POLY(1) 1 51 0 11.50M
C27 59 0 500F
*
R16 52 7 497
C25 52 58 130F
C24 52 0 250F
C23 52 10 100F
G10 58 7 POLY(1) 52 7 0 8.048M
D10 57 58 DX
V12 57 7 1.60
G12 60 7 POLY(1) 52 7 0 11.50M
C28 60 0 250F
*
* AMPLIFIER OUTPUT STAGE
*
R20 58 0 250K
C26 58 0 1.50P
Q10 7 58 59 QOUTP1
Q11 1 58 60 QOUTN1
Q12 1 59 10 QOUTN2
Q13 7 60 10 QOUTP2
C29 10 0 1.60P
*
* POWER SUPPLY BLOCK
*
G13 1 7 POLY(1) 1 7 -7.00M 3.00M
*
* NOISE BLOCKS
*
I1 62 61 DC 846U
D11 61 0 DN
D12 0 62 DN
*
I2 64 63 DC 846U
D13 63 0 DN
D14 0 64 DN
*
I3 66 65 DC 846U
D15 65 0 DN
D16 0 66 DN
*
I4 68 67 DC 846U
D17 67 0 DN
D18 0 68 DN
*
* MODELS
*
.MODEL DN D IS=0.166F RS=15.2 KF=100F AF=1.00
.MODEL DX D TT=200N
.MODEL DZ D IS=0.166F
*
.MODEL QINN NPN
+ IS =0.166F    BF =3.239E+02  NF =1.000E+00  VAF=84.6
+ IKF=2.462E-02 ISE=2.956E-17  NE =1.197E+00  BR =3.719E+01
+ NR =1.000E+00 VAR=1.696E+00  IKR=3.964E-02  ISC=1.835E-19
+ NC =1.700E+00 RB =68         IRB=0.000E+00  RBM=15.1
+ RC =2.645E+01 CJE=1.632E-13  VJE=7.973E-01
+ MJE=4.950E-01 TF =1.948E-11  XTF=1.873E+01  VTF=2.825E+00
+ ITF=5.955E-02 PTF=0.000E+00  CJC=1.720E-13  VJC=8.046E-01
+ MJC=4.931E-01 XCJC=171M       TR =4.212E-10  CJS=629F
+ MJS=0         KF =100F       AF =1.000E+00
+ FC =9.765E-01
*
.MODEL QMULT NPN
+ IS =0.166F    BF =3.239E+02 NF =1.000E+00 BR =3.719E+01
+ NR =1.000E+00 RB =68        IRB=0.000E+00 RBM=15.1
+ RC =2.645E+01 CJE=1.632E-13 VJE=7.973E-01
+ MJE=4.950E-01 TF =1.948E-11 XTF=1.873E+01 VTF=2.825E+00
+ ITF=5.955E-02 PTF=0.000E+00 CJC=1.720E-13 VJC=8.046E-01
+ MJC=4.931E-01 XCJC=171M     TR =4.212E-10 CJS=629F
+ MJS=0         KF =100F      AF =1.000E+00 FC =9.765E-01
*
.MODEL QOUTN1 NPN
+ IS =7.822E-16 BF =3.239E+02  NF =1.000E+00 VAF=8.457E+01
+ IKF=9.079E-02 ISE=1.090E-16  NE =1.197E+00 BR =3.960E+01
+ NR =1.000E+00 VAR=1.696E+00  IKR=1.462E-01 ISC=5.656E-19
+ NC =1.700E+00 RB =1.843E+01  IRB=0.000E+00 RBM=4.083E+00
+ RC =6.141E+00 CJE=5.858E-13  VJE=7.973E-01
+ MJE=4.950E-01 TF =1.874E-11  XTF=1.873E+01 VTF=2.825E+00
+ ITF=2.196E-01 PTF=0.000E+00  CJC=5.143E-13 VJC=8.046E-01
+ MJC=4.931E-01 XCJC=1.709E-01 TR =1.069E-09 CJS=8.567E-13
+ VJS=5.723E-01 MJS=4.105E-01  KF =100F      AF =1.000E+00
+ FC =9.765E-01
*
.MODEL QOUTN2 NPN
+ IS =1.880E-15 BF =3.239E+02 NF =1.000E+00 VAF=8.457E+01
+ IKF=2.182E-01 ISE=2.620E-16 NE =1.197E+00 BR =3.971E+01
+ NR =1.000E+00 VAR=1.696E+00 IKR=3.513E-01 ISC=1.348E-18
+ NC =1.700E+00 RB =57.7      IRB=0.000E+00 RBM=51.7
+ RC =3.738E+00 CJE=1.408E-12 VJE=7.973E-01
+ MJE=4.950E-01 TF =1.871E-11 XTF=1.873E+01 VTF=2.825E+00
+ ITF=5.278E-01 PTF=0.000E+00 CJC=1.224E-12 VJC=8.046E-01
+ MJC=4.931E-01 XCJC=800M     TR =1.296E-09 CJS=1.496E-12
+ MJS=4.105E-01 KF =100F      AF =1.000E+00
+ FC =9.765E-01
*
.MODEL QINP PNP
+ IS =0.166F    BF =7.165E+01 NF =1.000E+00 VAF=3.439E+01
+ IKF=1.882E-02 ISE=6.380E-16 NE =1.366E+00 BR =1.833E+01
+ NR =1.000E+00 VAR=1.805E+00 IKR=1.321E-01 ISC=3.666E-18
+ NC =1.634E+00 RB =28.8      IRB=0.000E+00 RBM=7.6
+ RC =3.739E+01 CJE=1.588E-13 VJE=7.975E-01
+ MJE=5.000E-01 TF =3.156E-11 XTF=5.386E+00 VTF=2.713E+00
+ ITF=5.084E-02 PTF=0.000E+00 CJC=2.725E-13 VJC=7.130E-01
+ MJC=4.200E-01 XCJC=170M     TR =7.500E-11 CJS=515F
+ MJS=0         KF =100F      AF =1.000E+00 FC =8.803E-01
*
.MODEL QOUTP1 PNP
+ IS =4.744E-16 BF =7.165E+01  NF =1.000E+00 VAF=3.439E+01
+ IKF=6.940E-02 ISE=2.353E-15  NE =1.366E+00 BR =1.948E+01
+ NR =1.000E+00 VAR=1.805E+00  IKR=4.873E-01 ISC=1.322E-17
+ NC =1.634E+00 RB =7.797E+00  IRB=0.000E+00 RBM=2.052E+00
+ RC =1.037E+01 CJE=5.858E-13  VJE=7.975E-01
+ MJE=5.000E-01 TF =3.073E-11  XTF=5.386E+00 VTF=2.713E+00
+ ITF=1.875E-01 PTF=0.000E+00  CJC=8.147E-13 VJC=7.130E-01
+ MJC=4.200E-01 XCJC=1.709E-01 TR =1.450E-10 CJS=1.364E-12
+ VJS=6.691E-01 MJS=3.950E-01  KF =100F      AF =1.000E+00
+ FC =8.803E-01
*
.MODEL QOUTP2 PNP
+ IS =1.140E-15 BF =7.165E+01 NF =1.000E+00 VAF=3.439E+01
+ IKF=1.668E-01 ISE=5.655E-15 NE =1.366E+00 BR =1.953E+01
+ NR =1.000E+00 VAR=1.805E+00 IKR=1.171E+00 ISC=3.173E-17
+ NC =1.634E+00 RB =53.2      IRB=0.000E+00 RBM=50.9
+ RC =6.213E+00 CJE=1.408E-12 VJE=7.975E-01
+ MJE=5.000E-01 TF =3.070E-11 XTF=5.386E+00 VTF=2.713E+00
+ ITF=4.506E-01 PTF=0.000E+00 CJC=1.939E-12 VJC=7.130E-01
+ MJC=4.200E-01 XCJC=900M     TR =1.850E-10 CJS=2.351E-12
+ MJS=3.950E-01 KF =100F      AF =1.000E+00
+ FC =8.803E-01
*
.ENDS