* BEGIN MODEL LMH6733
*Rev A, March 2007
*//////////////////////////////////////////////////////////////////////
* (C) NATIONAL SEMICONDUCTOR, CORPORATION.
* MODELS DEVELOPED AND UNDER COPYRIGHT BY:
* NATIONAL SEMICONDUCTOR, CORPORATION.
*/////////////////////////////////////////////////////////////////////
* LEGAL NOTICE:
* THE MODEL MAY BE COPIED, AND DISTRIBUTED WITHOUT ANY MODIFICATIONS;
* HOWEVER, RESELLING OR LICENSING THE MATERIAL IS ILLEGAL.
* WE RESERVE THE RIGHT TO MAKE CHANGES TO THE MODEL WITHOUT PRIOR NOTICE.
* PSPICE MODELS ARE PROVIDED "AS IS, WITH NO WARRANTY OF ANY KIND"
*////////////////////////////////////////////////////////////////////
*********************************************************
* NOTE - THIS MODEL DOES NOT INCLUDE THE SHUTDOWN FEATURE
* NOTE - THIS MODEL IS FOR THE A SECTION ONLY
* NOTE - THIS MODEL HAS OPTIMIZED BANDWIDTH AND SLEW FOR
*        OPERATION WITH 10 VOLTS TOTAL SUPPLY. FOR OPERATION
*        AT 5 VOLTS TOTAL SUPPLY, CHANGE THE VALUE OF C11
*        BELOW FROM 1.9E-12 TO 2.4E-12. C11 IS THE FIRST
*        COMPONENT IN THE BODY OF THE SUBCIRCUIT.
*********************************************************
* MODEL FEATURES INCLUDE OUTPUT SWING, OUTPUT CURRENT THRU
* THE SUPPLY RAILS, OUTPUT SWING VS IO, OUTPUT CURRENT LIMIT,
* OPEN LOOP TRANSIMPEDANCE AND PHASE, SLEW RATE, COMMON MODE
* REJECTION WITH FREQ EFFECTS, POWER SUPPLY REJECTION WITH
* FREQ EFFECTS, INPUT VOLTAGE NOISE WITH 1/F, NON INVERTING
* INPUT CURRENT NOISE WITH 1/F, INVERTING INPUT CURRENT NOISE
* WITH 1/F, INPUT CAPACITANCE, INPUT BIAS CURRENT, INPUT
* COMMON MODE VOLTAGE RANGE, INPUT OFFSET, HIGH CLOAD EFFECTS,
* AND QUIESCENT CURRENT VS SUPPLY VOLTAGE.
*
* PINOUT ORDER +IN -IN +V -V OUT
* PINOUT ORDER  2   1  15 13  14
.SUBCKT LMH6733 2 1 15 13 14
*
C11 41 0 1.9E-12
*
Q17 13 16 17 QOP
Q21 15 18 17 QON
D5 14 15 DD
D6 13 14 DD
D7 19 0 DIN2
D8 20 0 DIN2
I8 0 19 0.1E-3
I9 0 20 0.1E-3
E2 21 0 13 0 1
E3 22 0 15 0 1
D9 23 0 DVN
D10 24 0 DVN
I10 0 23 0.1E-3
I11 0 24 0.1E-3
E4 25 1 23 24 0.9
G2 2 0 19 20 1.29E-2
R22 13 15 5.4E3
E5 26 0 22 0 4
E6 27 0 21 0 6
E7 28 0 29 0 1
R30 26 30 1E4
R31 27 31 1E4
R32 28 32 1E4
R33 0 30 1
R34 0 31 1
R35 0 32 1
E10 33 2 32 0 -4
R36 34 29 1E3
R37 29 35 1E3
C6 26 30 8E-12
C7 27 31 6E-12
C8 28 32 0.4E-15
E11 36 33 31 0 2
E12 37 36 30 0 -3
Q22 21 38 18 QDP
Q23 22 38 16 QDN
R38 0 39 10
R39 0 38 10
C9 39 0 12E-12
C10 38 0 4E-12
E15 40 41 42 0 1
E16 41 43 42 0 1
E17 44 0 41 0 1
D11 45 22 DD
D12 21 46 DD
V11 43 46 1.75
V12 45 40 1.75
I15 0 47 1E-3
D13 47 0 DD
V13 42 47 -0.71465
D14 48 49 DD
D15 49 50 DD
R40 49 41 97
R41 0 49 100E3
F1 49 0 V14 -2.25
E18 51 0 37 0 0.9965
R42 51 52 30
V14 52 53 -14.6E-3
R43 17 54 1
G3 39 0 41 0 0.1
G4 38 0 39 0 0.1
C14 17 0 0.2E-12
L1 54 14 4E-9
R45 54 14 400
E20 48 44 42 0 1
E21 50 44 42 0 -1
L2 25 53 0.2E-9
R46 25 53 200
G5 22 18 55 0 0.8E-3
G6 16 21 55 0 0.8E-3
E49 35 0 2 0 1
E50 34 0 25 0 1
C15 25 0 0.6E-12
C16 37 0 0.8E-12
C17 25 37 0.4E-12
D16 56 0 DIN
D17 57 0 DIN
I17 0 56 0.1E-3
I18 0 57 0.1E-3
G7 25 0 56 57 9E-3
I19 0 2 -3.5E-6
I20 1 0 -5E-6
R145 37 0 2E6
C18 25 0 0.4E-12
R146 36 37 1E9
R147 33 36 1E9
R148 2 33 1E9
R149 1 25 1E9
R150 41 40 1E9
R151 43 41 1E9
R152 44 0 1E12
R153 0 48 1E12
R154 0 50 1E12
C24 14 0 0.1E-12
G8 15 13 55 0 3.9E-3
R167 0 42 1E12
J1 25 58 25 JC
J2 2 58 2 JC
J3 59 25 59 JC
J4 59 2 59 JC
V61 22 59 1.5
V62 58 21 1.5
V63 55 0 1
R168 0 55 1E9
.MODEL QON NPN VAF=150 BF=160 IKF=0.45 RE=4 RC=0.5
.MODEL QOP PNP VAF=150 BF=160 IKF=0.45 RE=4 RC=0.5
.MODEL QDP PNP
.MODEL QDN NPN
.MODEL JC NJF RS=1E3 IS=1E-18
.MODEL DD D
.MODEL DC D IS=5.002E-16
.MODEL DVN D KF=5.8E-16
.MODEL DIN D KF=2E-15
.MODEL DIN2 D KF=1.3E-15
.ENDS
* END MODEL LMH6733
