*BEGIN MODEL LMP8601
*//////////////////////////////////////////////////
*
* Rev 1.4 Jan, 2020
* 1.0 Initial Release
* 1.1 Corrected swapped INP and INN
* 1.2 Corrected offset swing
* 1.3 Removed option lines from end of model
* 1.4 Corrected PSpice compatibility issues
*
*///////////////////////////////////////////////////////
*
* (C) National Semiconductor Corporation
*  Models developed and under copyright by: 
*  National Semiconductor Corporation
*
*////////////////////////////////////////////////////////
*
* Legal Notice:
* The model may be copied, and distributed without any modifications;
* however, reselling or licensing the material is illegal.
* We reserve the right to make changes to the model without prior notice.
* PSPICE models are provided “AS IS, WITH NO WARRANTY OF ANY KIND.”
*
*/////////////////////////////////////////////////////////
* 
* PINOUT ORDER  +IN  -IN  +V  -V  OUT A1 A2  OFFSET
* PIN ORDER     INP  INM  VCC VEE OUT RF IN2 OFFSET
.SUBCKT LMP8601 INP INM VCC VEE OUT RF IN2 OFFSET
*
*/////////////////////////////////////////////////////////////  
M7 OUT A221 A14 VDD!  PMOS  L=1E-6 W=1E-3 AD=+1.05000000E-09 
+AS=+1.05000000E-09 PD=+2.00210000E-03 PS=+2.00210000E-03 M=1.0 
M6 A12 A12 A14 VDD!  PMOS  L=1E-6 W=1E-3 AD=+1.05000000E-09 AS=+1.05000000E-09 
+PD=+2.00210000E-03 PS=+2.00210000E-03 M=1.0 
M5 A182 A205 A20 VDD!  PMOS  L=1E-6 W=1E-3 AD=+1.05000000E-09 
+AS=+1.05000000E-09 PD=+2.00210000E-03 PS=+2.00210000E-03 M=1.0 
M4 A18 A18 A20 VDD!  PMOS  L=1E-6 W=1E-3 AD=+1.05000000E-09 AS=+1.05000000E-09 
+PD=+2.00210000E-03 PS=+2.00210000E-03 M=1.0 
M3 OUT A187 A26 0  NMOS  L=1E-6 W=500E-6 AD=+5.25000000E-10 AS=+5.25000000E-10 
+PD=+1.00210000E-03 PS=+1.00210000E-03 M=1.0 
M2 A24 A24 A26 0  NMOS  L=1E-6 W=500E-6 AD=+5.25000000E-10 AS=+5.25000000E-10 
+PD=+1.00210000E-03 PS=+1.00210000E-03 M=1.0 
M1 A182 A183 A32 0  NMOS  L=1E-6 W=500E-6 AD=+5.25000000E-10 
+AS=+5.25000000E-10 PD=+1.00210000E-03 PS=+1.00210000E-03 M=1.0 
M0 A30 A30 A32 0  NMOS  L=1E-6 W=500E-6 AD=+5.25000000E-10 AS=+5.25000000E-10 
+PD=+1.00210000E-03 PS=+1.00210000E-03 M=1.0 
RIN1 A34 A46  400E3 
RIN2 A36 1  400E3 
RESDA1 INP A89  1E6 
RESDB1 A89 VEE  350E3 
RESDB2 A42 VEE  350E3 
RESDA2 A72 A42  1E6 
RDIVIDE1 A46 A45  10E3 
RDIVIDE2 1 A45  10E3 
RFB2 1 A49  4E6 
RFB1 A46 A51  4E6 
RF1 A83 A53  10E3 
RF2 A53 A55  10E3 
RF3 A55 A57  10E3 
RPSI VCC VEE  17E3 
RFILTER A182 RF  100E3 
RCMRR1 INP A34  100E-3 
RCLAMP1 A162 INT1  1E3 
ROFFSET1 OFFSET A80  100E3 
ROFFSET2 A70 VEE  100E3 
RCMRR2 A72 A36  2.0 
ROUT1 A183 VEE  100E3 
ROUT2 A187 VEE  100E3 
RCLAMP2 A209 A77  1E3 
R3 A80 A86  1.0 
RGE1 A51 VREF  1.0 
RGE2 A49 A83  1.0 
R4 A86 A70  300.0 
DESD2 VEE A42  DIODEIDEAL   
DESD1 VEE A89  DIODEIDEAL  
DCMVRLO1 A229 A197  DIODEIDEAL  
DCMVRLO2 1 A197  DIODEIDEAL  
DCLAMP1B INT1 A213  DIODEIDEAL  
DCLAMP1A A123 INT1  DIODEIDEAL  
DCLAMP2B A77 A225  DIODEIDEAL   
DCLAMP2A A125 A77  DIODEIDEAL   
DISNK2 A187 A131  DIODEIDEAL   
DCMVRHI2 A110 1  DIODEIDEAL  
DISRC2 A108 A221  DIODEIDEAL  
DCMVRHI1 A110 A233  DIODEIDEAL  
DTEMP3 A112 VEE  DIODEIDEAL  
DTEMP2 A116 VEE  DIODEIDEAL  
DTEMP1 A116 VEE  DIODEIDEAL  
VDIVIDE A45 VEE  1.5 
VOFFSET2 A119 IN2  500E-6 
VCLAMP1B VCC A122  500E-3 
VCLAMP1A A123 VEE  500E-3 
VCLAMP2A A125 VEE  500E-3 
VCMVRLO A230 VEE  1.1 
VPSW2 VCC A14  10E-3 
VISNK2 A131 VEE  800E-3 
VPSW1 VCC A20  15E-3 
VOFFSET INM A237  150E-6 
VNSW2 A26 VEE  4E-3 
VNSW1 A32 VEE  2E-3 
VCLAMP2B VCC A142  500E-3 
VISRC2 VCC A108  1.2 
VCMVRHI A234 VEE  1.775 
VTEMP A147 VEE  -1.80000000E-02 
CIN2 A72 VEE  3E-12 
CACCMRR1 A46 VEE  1E-15 
CIN1 INP VEE  3E-12 
C7 A187 OUT  100E-12 
CF1 A53 VEE  356E-12 
CF2 A57 VEE  51.7E-12 
CF3 A55 A162  940E-12 
CACCMRR2 1 VEE  150E-15 
C8 A221 OUT  100E-12 
CPOUT1 A205 A182  100E-12 
CNOUT1 A183 A182  100E-12 
CSTAGE2 A119 VEE  3E-12 
GSTAGE1 A83 VREF 1 A46 1.0 
GF A162 VEE A162 A57 1.0
GOUT1 A183 VEE INT1 A182 1E-3
GOUT2 A187 VEE A77 OUT 1E-3
IOUT1 A18 A30  DC=100E-6 
IPSI VCC VEE  DC=370E-6 
IOUT2 A12 A24  DC=100E-6 
ICMVRHI VEE A110  DC=1E-6 
ICMVRLO A197 VEE  DC=1E-6 
ITEMP1 VEE A116  DC=10E-6 
ITEMP2 VEE A112  DC=10E-6 
EOUT1 A205 A183 A18 A30 1.0 
DEOUT1A VEE A183  DIODEIDEAL  
DEOUT1B A205 VCC  DIODEIDEAL  
EGAIN2 A209 VREF A119 VREF 2.0 
ECLAMP1B A213 VEE A122 VEE 1.0 
EOFFSET VREF VEE A86 VEE 1.0 
EOUT2 A221 A187 A12 A24 1.0 
DEOUT2A VEE A187  DIODEIDEAL  
DEOUT2B A221 VCC  DIODEIDEAL  
ECLAMP2 A225 VEE A142 VEE 1.0 
ECMVRLO A229 A230 VCC VEE 470E-3 
ECMVRHI A233 A234 VCC VEE  -235E-3 
ETCVOS A237 A72 2 VEE  2E-6 
ETEMP1 A241 A147 A112 A116  1.0 
ETEMP2 2 VEE A241 VEE  16.666E3 
     
   
.MODEL DIODEIDEAL D 
.MODEL PMOS PMOS VTO=-0.9    
.MODEL NMOS NMOS VTO=0.7    
   
* END OF NETLIST 
.ENDS

