*$
* LMR14010A
*****************************************************************************
* (C) Copyright 2018 Texas Instruments Incorporated. All rights reserved.                                            
*****************************************************************************
** This model is designed as an aid for customers of Texas Instruments.
** TI and its licensors and suppliers make no warranties, either expressed
** or implied, with respect to this model, including the warranties of 
** merchantability or fitness for a particular purpose.  The model is
** provided solely on an "as is" basis.  The entire risk as to its quality
** and performance is with the customer
*****************************************************************************
*
* This model is subject to change without notice. Texas Instruments
* Incorporated is not responsible for updating this model.
*
*****************************************************************************
*
** Released by: Texas Instruments Inc.
* Part: LMR14010A
* Date: 23MAR2018
* Model Type: TRANSIENT 
* Simulator: PSPICE
* Simulator Version: 16.2.0.p001
* EVM Order Number:LMR14010AEVM
* EVM Users Guide: SNVU597–March 2018
* Data sheet: SLUSD87 –MARCH 2018
* Topologies Supported: Buck,Inverting Buck Boost
*
* Model Version: Final 1.00
*
*****************************************************************************
*
* Updates:
*
* Final 1.00
* Release to Web.
*
*****************************************************************************
*
* Model Usage Notes:
* 1. The following features have been modelled
*      a. Peak current limit, Valley current limit and Hiccup.
*      b. PGOOD threshold and hysteresis.
*      c. Maximum on time.
*      d. Frequency variation during low load condition. 
* 2. Temperature effects and variation of peak inductor current w.r.t to vin
*    in pulse skip mode are not modelled . 
*
****************************************************************************** 
.SUBCKT LMR14010A_TRANS CB FB GND SHDN SW VIN  PARAMS: STEADY_STATE=0
X_U7_U824         U7_N16489522 U7_INDELAYED1 PWM_CLK PWM_FINAL OR3_BASIC_GEN
+  PARAMS: VDD=1 VSS=0 VTHRESH=500E-3
R_U7_R272         U7_N16489522 U7_INDELAYED1  15.70k  
X_U7_U620         U7_N16489522 U7_INDELAYED1 d_d PARAMS:
C_U7_C172         0 U7_INDELAYED1  8p  
X_U7_U822         PWM_CLK U7_N16497188 INV_DELAY_BASIC_GEN PARAMS: VDD=1 VSS=0
+  VTHRESH=0.5 DELAY=15n
X_U7_U823         U7_N16497188 PWM_CLK U7_N16489522 AND2_BASIC_GEN PARAMS:
+  VDD=1 VSS=0 VTHRESH=500E-3
R_U3_R277         U3_N16489962 RT  1  
V_U3_V44         U3_N16670466 U3_N16669101 0
G_U3_ABMI3         U3_N16490102 U3_RAMP VALUE { {-( I(V_U3_V44)) }    }
X_U3_U133         MUXCLK U3_N16518846 INV_DELAY_BASIC_GEN PARAMS: VDD=1 VSS=0
+  VTHRESH=0.5 DELAY=5n
X_U3_U132         U3_N16518846 U3_N16517387 INV_DELAY_BASIC_GEN PARAMS: VDD=1
+  VSS=0 VTHRESH=0.5 DELAY=5n
X_U3_S26    U3_N16517226 0 U3_RAMP 0 Oscillator_U3_S26 
R_U3_R276         0 U3_N16489962  500MEG  
E_U3_ABM5         U3_N16668754 0 VALUE { (V(U3_N16701339)/1)    }
X_U3_U131         U3_RAMP U3_N16505459 MUXCLK COMP_BASIC_GEN PARAMS: VDD=1
+  VSS=0 VTHRESH=0.5
R_U3_R278         I_RT 0  1  
C_U3_C79         U3_RAMP 0  2p  
D_U3_D11         U3_RAMP U3_N16490102 D_D1 
X_U3_U134         SDWN U3_N16517387 U3_N16517226 OR2_BASIC_GEN PARAMS: VDD=1
+  VSS=0 VTHRESH=500E-3
X_U3_H1    U3_N16489962 U3_N16670466 I_RT 0 Oscillator_U3_H1 
R_U3_R9         0 RT  100k  
X_U3_U2         VSENSE_DIFF U3_N16701339 vfb2freq
E_U3_E1         U3_N16669101 0 U3_N16668754 0 1
V_U3_V46         U3_N16505459 0 2.5
V_U3_V45         U3_N16490102 0 5
E_E2         SHDN1 0 SHDN GND 1
V_V46         SET1 0 1
C_U5_C166         0 U5_GM  1n  
E_U5_ABM8         U5_N16513186 0 VALUE { {IF(V(COMP) > 2.1,1,0)}    }
V_U5_V5         U5_N16513014 0 555.201m
V_U5_V6         U5_N16513008 0 1.945
C_U5_C172         0 COMP  1p IC=0 
C_U5_C5         0 U5_N16512974  125p  
X_U5_U614         U5_N16513186 U5_N16513124 U5_N16513160 AND2_BASIC_GEN PARAMS:
+  VDD=1 VSS=0 VTHRESH=500E-3
X_U5_S5    UVLO 0 COMP 0 ErrorAmp_U5_S5 
D_U5_D11         U5_N16513014 COMP D_D1 
G_U5_ABM2I1         0 COMP VALUE { {LIMIT((V(VREF) - V(VSENSEINT))*V(U5_GM),
+  -10u,10u)}    }
X_U5_U603         SDWN U5_N16513124 INV_BASIC_GEN PARAMS: VDD=1 VSS=0
+  VTHRESH=500E-3
R_U5_R11         U5_N16513160 OCB  1  
R_U5_R290         U5_N16723697 U5_GM  1  
R_U5_R4         U5_N16512974 COMP  226k  
D_U5_D10         COMP U5_N16513008 D_D1 
C_U5_C9         0 OCB  1n  
R_U5_R294         0 COMP  125Meg  
X_U5_U615         SS U5_N16723697 ss2gm
D_U4_D62         SS U4_N7397984 D_D1 
C_U4_C14         0 VREF  1n  
C_U4_C15         0 U4_N7398492  1n  
V_U4_V70         U4_N7397984 0 1.6446
E_U4_ABM180         U4_N7398466 0 VALUE { IF(V(OCB) > 0.5 & V(SS) >
+  V(VSENSEINT) + 10m,1,0)    }
X_U4_U1         SDWN U4_N7406804 INV_BASIC_GEN PARAMS: VDD=1 VSS=0
+  VTHRESH=500E-3
G_U4_ABMI5         SS 0 VALUE { {IF(V(SS_DISCH) >0.5, 1.25m,0)}    }
E_U4_ABM178         U4_N7398284 0 VALUE { IF(V(SS) < 0.765, V(SS),0.765)    }
R_U4_R14         U4_N7398284 VREF  1  
C_U4_C8         0 SS  3.92n  
X_U4_S68    U4_N7398492 0 SS 0 SoftStart_U4_S68 
G_U4_ABMII1         U4_N7397984 SS VALUE { {IF(V(U4_N7406804) > 0.5,2u,0)}    }
R_U4_R15         U4_N7398466 U4_N7398492  1  
D_U4_D63         0 SS D_D1 
C_U11_C164         U11_N16580305 U11_N16580367  140.5p  
E_U11_ABM173         SS_DISCH 0 VALUE { {IF(V(SS)  < 40m,0,  
+ IF(V(U11_N16580305) > 0.5,1,0))}   }
X_U11_U604         ENAB U11_N16496294 INV_BASIC_GEN PARAMS: VDD=1 VSS=0
+  VTHRESH=500E-3
R_U11_R287         U11_N16580305 0  1k  
V_U11_V65         U11_N165823720 0 0.3
X_U11_U603         SDWN U11_N16580367 INV_BASIC_GEN PARAMS: VDD=1 VSS=0
+  VTHRESH=500E-3
X_U11_U615         U11_N6045018 VIN U11_N165823720 UVLO COMPHYS_BASIC_GEN
+  PARAMS: VDD=1 VSS=0 VTHRESH=0.5
V_U11_V64         U11_N6045018 0 3.6
X_U11_U601         U11_N16496294 UVLO SDWN OR2_BASIC_GEN PARAMS: VDD=1 VSS=0
+  VTHRESH=500E-3
C_U6_C147         0 U6_ICTRL  1n  
X_U6_U601         U6_N16489001 VSENSEINT U6_OVTP COMP_BASIC_GEN PARAMS: VDD=1
+  VSS=0 VTHRESH=0.5
V_U6_V81         U6_N16661959 0 0.56
X_U6_U606         PWM_CLK N16614086 U6_CLK_WIDER SET1 U6_PWM SET1
+  DFFSBRB_NODELAY PARAMS:  VDD=1 VSS=0 VTHRESH=0.5
E_U6_ABM163         U6_N16502082 0 VALUE { LIMIT(((V(U6_N16488977) -
+  V(U6_VRAMP)) * 10)  
+ -9u,11u,180u)   }
E_U6_ABM151         U6_N16489395 0 VALUE { {IF(V(PWM_FINAL) > 0.5, 1,0)}    }
E_U6_ABM165         U6_N16531938 0 VALUE { (V(U6_N16502082) * 8.33k)    }
X_U6_U598         MUXCLK U6_N16489527 U6_N16564386 AND2_BASIC_GEN PARAMS: VDD=1
+  VSS=0 VTHRESH=500E-3
X_U6_U615         COMP U6_N16687334 U6_N16687455 U6_N16682941 COMPHYS_BASIC_GEN
+  PARAMS: VDD=1 VSS=0 VTHRESH=0.5
E_U6_ABM153         U6_CLK_WIDER 0 VALUE { {IF(V(MUXCLK) > 0.05, 1,0)}    }
R_U6_R256         U6_N16531938 U6_ICTRL  1  
X_U6_U607         N16662685 N16662844 U6_N16661959 SET1 U6_N16661959 SET1
+  DFFSBRB_RHPBASIC_GEN PARAMS: VDD=1 VSS=0 VTHRESH=500E-3
E_U6_ABM164         U6_N16488977 0 VALUE { {((V(COMP) /100k)  - 5u)*3}    }
D_U6_D58         U6_N16489275 U6_N16489395 D_D1 
X_U6_U600         U6_ICTRL U6_ISWF U6_COM_PULSE COMP_BASIC_GEN PARAMS: VDD=1
+  VSS=0 VTHRESH=0.5
X_U6_U602         U6_COM_PULSE BOOT_UVLO U6_OVTP U6_N16682956 AND3_BASIC_GEN
+  PARAMS: VDD=1 VSS=0 VTHRESH=500E-3
V_U6_V82         U6_N16687334 0 0.55
E_U6_ABM152         U6_ISWF 0 VALUE { {IF(V(U6_N16489275) > 0.5,  
+ V(ISW),0)}   }
E_U6_ABM148         U6_VRAMP 0 VALUE { {V(U6_VRAMPIN)*0.001}    }
V_U6_V83         U6_N16687455 0 0.01
X_U6_U134         U6_N16564386 SDWN U6_N16543632 OR2_BASIC_GEN PARAMS: VDD=1
+  VSS=0 VTHRESH=500E-3
R_U6_R255         U6_N16489395 U6_N16489275  14.4k  
C_U6_C146         0 U6_N16489275  5p  
C_U6_C134         0 U6_VRAMPIN  1n  
G_U6_ABMI4         U6_VRAMPIN 0 VALUE { {V(IF2IA) * -1.0}    }
X_U6_S26    U6_N16543632 0 U6_VRAMPIN 0 GmIphase_U6_S26 
V_U6_V79         U6_N16489001 0 .8262
X_U6_U599         MUXCLK U6_N16489527 INV_DELAY_BASIC_GEN PARAMS: VDD=1 VSS=0
+  VTHRESH=0.5 DELAY=15n
X_U6_U608         U6_N16682956 U6_N16682941 U6_PWM AND2_BASIC_GEN PARAMS: VDD=1
+  VSS=0 VTHRESH=500E-3
R_U1_R256         SHDN1 U1_N7335522  100MEG  
D_U1_D9         SHDN VIN D_D1 
E_U1_ABM1         U1_N7335540 0 VALUE { {IF(V(SHDN1) <1.25,0,1)}    }
E_U1_ABM173         U1_N7335522 0 VALUE { {IF(V(VIN) > 3.6,5,0)}    }
G_U1_ABMII1         VIN SHDN VALUE { {0.9u+ 2.9u*V(ENAB)}    }
R_U1_R1         U1_N7335540 ENAB  461.760k  
C_U1_C1         ENAB 0  1n IC={STEADY_STATE} 
D_U1_D8         SHDN1 U1_N7335522 D_D1 
X_U8_U602         U8_OUT U8_BOOT_ON INV_BASIC_GEN PARAMS: VDD=1 VSS=0
+  VTHRESH=500E-3
X_U8_H1    VIN U8_N7273988 ISW 0 Driver_U8_H1 
C_U8_C3         0 U8_N7345383  1n  
X_U8_S34    U8_BOOT_SW_ON 0 CB VIN Driver_U8_S34 
X_U8_U610         U8_HDRVIN U8_N7274198 INV_BASIC_GEN PARAMS: VDD=1 VSS=0
+  VTHRESH=500E-3
X_U8_U605         U8_HDRVIN U8_LDRV INV_BASIC_GEN PARAMS: VDD=1 VSS=0
+  VTHRESH=500E-3
X_U8_S3    U8_N7274032 0 HDRV SW Driver_U8_S3 
X_U8_U604         U8_N7365280 PWM_FINAL U8_HDRVIN AND2_BASIC_GEN PARAMS: VDD=1
+  VSS=0 VTHRESH=500E-3
E_U8_ABM167         U8_N7274256 0 VALUE { {IF((V(CB) - V(SW)) < 3.2,0,1)}    }
D_U8_D12         SW U8_N7273988 D_D1 
X_U8_U608         U8_HDRVIN U8_N7342498 U8_N7274022 AND2_BASIC_GEN PARAMS:
+  VDD=1 VSS=0 VTHRESH=500E-3
X_U8_S30    HDRV SW U8_N7273988 SW Driver_U8_S30 
X_U8_U613         SDWN U8_N7365280 INV_BASIC_GEN PARAMS: VDD=1 VSS=0
+  VTHRESH=500E-3
X_U8_U607         U8_LDRV ENAB U8_BOOT_ON U8_SDWN_N U8_BOOT_SW_ON
+  AND4_BASIC_GEN PARAMS: VDD=1 VSS=0 VTHRESH=500E-3
X_U8_U5         U8_N7347010 U8_N7345383 U8_OUT COMP_BASIC_GEN PARAMS: VDD=1
+  VSS=0 VTHRESH=0.5
X_U8_S2    U8_N7274022 0 CB HDRV Driver_U8_S2 
X_U8_U609         U8_N7343256 U8_N7274198 U8_N7274032 AND2_BASIC_GEN PARAMS:
+  VDD=1 VSS=0 VTHRESH=500E-3
X_U8_U611         U8_HDRVIN U8_N7342498 BUF_DELAY_BASIC_GEN PARAMS: VDD=1 VSS=0
+  VTHRESH=0.5 DELAY=10n
X_U8_U606         SDWN U8_SDWN_N INV_BASIC_GEN PARAMS: VDD=1 VSS=0
+  VTHRESH=500E-3
R_U8_R3         U8_N167200971 U8_N7345383  1  
R_U8_R244         U8_N7274256 BOOT_UVLO  1  
E_U8_ABM169         U8_N7347010 0 VALUE { V(CB) - V(SW)    }
C_U8_C140         0 BOOT_UVLO  1n  
X_U8_U612         U8_N7274198 U8_N7343256 BUF_DELAY_BASIC_GEN PARAMS: VDD=1
+  VSS=0 VTHRESH=0.5 DELAY=10n
E_U8_ABM2         U8_N167200971 0 VALUE { ((V(U8_OUT) *-500m)+ 6)    }
V_U22_V1         VSENSE_DIFF VSENSEINT 0Vdc
E_U22_ABM165         IF2IA 0 VALUE { V(I_RT)*3.368    }
E_E1         VSENSE_DIFF 0 FB GND 1
.IC         V(U3_N16518846 )=1
.IC         V(MUXCLK )=0
.IC         V(U3_RAMP )=0
.IC         V(SS )={STEADY_STATE*1.7}
.ENDS LMR14010A_TRANS
*$
.subckt Oscillator_U3_S26 1 2 3 4  
S_U3_S26         3 4 1 2 _U3_S26
RS_U3_S26         1 2 1G
.MODEL         _U3_S26 VSWITCH Roff=100e6 Ron=1.0 Voff=0.2 Von=0.8
.ends Oscillator_U3_S26
*$
.subckt Oscillator_U3_H1 1 2 3 4  
H_U3_H1         3 4 VH_U3_H1 -1
VH_U3_H1         1 2 0V
.ends Oscillator_U3_H1
*$
.subckt ErrorAmp_U5_S5 1 2 3 4  
S_U5_S5         3 4 1 2 _U5_S5
RS_U5_S5         1 2 1G
.MODEL         _U5_S5 VSWITCH Roff=1e12 Ron=1m Voff=0.1 Von=0.9
.ends ErrorAmp_U5_S5
*$
.subckt SoftStart_U4_S68 1 2 3 4  
S_U4_S68         3 4 1 2 _U4_S68
RS_U4_S68         1 2 1G
.MODEL         _U4_S68 VSWITCH Roff=1e9 Ron=1087 Voff=0.2 Von=0.8
.ends SoftStart_U4_S68
*$
.subckt GmIphase_U6_S26 1 2 3 4  
S_U6_S26         3 4 1 2 _U6_S26
RS_U6_S26         1 2 1G
.MODEL         _U6_S26 VSWITCH Roff=100e6 Ron=10m Voff=0.2 Von=0.8
.ends GmIphase_U6_S26
*$
.subckt Driver_U8_H1 1 2 3 4  
H_U8_H1         3 4 VH_U8_H1 1
VH_U8_H1         1 2 0V
.ends Driver_U8_H1
*$
.subckt Driver_U8_S34 1 2 3 4  
S_U8_S34         3 4 1 2 _U8_S34
RS_U8_S34         1 2 1G
.MODEL         _U8_S34 VSWITCH Roff=1000e6 Ron=107 Voff=0.2 Von=0.8
.ends Driver_U8_S34
*$
.subckt Driver_U8_S3 1 2 3 4  
S_U8_S3         3 4 1 2 _U8_S3
RS_U8_S3         1 2 1G
.MODEL         _U8_S3 VSWITCH Roff=1e9 Ron=1.0 Voff=0.2 Von=0.8
.ends Driver_U8_S3
*$
.subckt Driver_U8_S30 1 2 3 4  
S_U8_S30         3 4 1 2 _U8_S30
RS_U8_S30         1 2 1G
.MODEL         _U8_S30 VSWITCH Roff=1e9 Ron=500m Voff=0.2 Von=0.8
.ends Driver_U8_S30
*$
.subckt Driver_U8_S2 1 2 3 4  
S_U8_S2         3 4 1 2 _U8_S2
RS_U8_S2         1 2 1G
.MODEL         _U8_S2 VSWITCH Roff=1e9 Ron=2 Voff=0.2 Von=0.8
.ends Driver_U8_S2
*$
.SUBCKT CESR IN OUT
+ PARAMs:  C=100u ESR=0.01 X=2 IC=0
C	IN 1  {C*X} IC={IC}
RESR	1 OUT {ESR/X}
.ENDS CESR
*$
.subckt d_d 1 2
d1 1 2 dd1
.model dd1 d
+ is=1e-015
+ tt=1e-011
+ rs=0.05
+ n=0.1
.ends d_d
*$
.model D_D1 d
+ is=1e-015
+ tt=1e-011
+ rs=0.05
+ n=0.1
+ vj=0.01
*$
.MODEL D_D123 D( IS=1e-15 TT=10p Rs=0.005 N=0.1  VJ=10m)
*$
.SUBCKT LDCR IN OUT
+ PARAMs:  L=1u DCR=0.01 IC=0
L	IN 1  {L} IC={IC}
RDCR	1 OUT {DCR}
.ENDS LDCR
*$
.SUBCKT COMP_BASIC_GEN INP INM Y PARAMS: VDD=1 VSS=0 VTHRESH=0.5	
E_ABM Yint 0 VALUE {IF (V(INP) > 
+ V(INM), {VDD},{VSS})}
R1 Yint Y 1
C1 Y 0 1n
.ENDS COMP_BASIC_GEN
*$
.SUBCKT COMPHYS_BASIC_GEN INP INM HYS OUT PARAMS: VDD=1 VSS=0 VTHRESH=0.5	
EIN INP1 INM1 INP INM 1 
EHYS INP1 INP2 VALUE { IF( V(1) > {VTHRESH},-V(HYS),0) }
EOUT OUT 0 VALUE { IF( V(INP2)>V(INM1), {VDD} ,{VSS}) }
R1 OUT 1 1
C1 1 0 5n
RINP1 INP1 0 1K
.ENDS COMPHYS_BASIC_GEN
*$
.SUBCKT NMOSIDEAL_PS  D G S PARAMS: k=1 vth=0.5
RDDUM D 0 1e11
RSDUM S 0 1e11
RGDUM G 0 1e11
CG G D 0.01pF
CD D S 0.01pF
EON Yp 0 VALUE={IF(V(G,S) > {vth}, 1, 0)}
GOUT D S VALUE={IF(V(D,S) > (V(G,S)-{vth}), V(Yp)*({k}/2)*
+(V(G,S)-{vth})**2,
+ V(Yp)*({k})*(V(G,S)-{vth}-(V(D,S)/2))*V(D,S))}
.ENDS
*$
.SUBCKT PMOSIDEAL_PS D G S PARAMS: k=1 vth=0 
RDDUM D 0 1e11
RSDUM S 0 1e11
RGDUM G 0 1e11
CG G D 0.01pF
CD D S 0.01pF
EON Yp 0 VALUE={IF(V(S,G) > {vth}, -1, 0)}
GOUT D S VALUE={IF(V(S,D) > (V(S,G)-{vth}), V(Yp)*({k}/2)*
+ (V(S,G)-{vth})**2,
+ V(Yp)*({k})*(V(S,G)-{vth}-(V(S,D)/2))*V(S,D))}
.ENDS PMOSIDEAL_PS
*$
.SUBCKT COMPHYS2_BASIC_GEN INP INM HYS OUT PARAMS: VDD=1 VSS=0 VTHRESH=0.5	
+ T=10
EIN INP1 INM1 INP INM 1 
EHYS INM2 INM1 VALUE { IF( V(1) > {VTHRESH},-V(HYS)/2,V(HYS)/2) }
EOUT OUT 0 VALUE { IF( V(INP1)>V(INM2), {VDD} ,{VSS}) }
R1 OUT 1 1
C1 1 0 {T*1e-9}
RINP1 INP1 0 10K
RINM2 INM2 0 10K
.ENDS COMPHYS2_BASIC_GEN
*$
.SUBCKT AND2_BASIC_GEN A B Y PARAMS: VDD=1 VSS=0 VTHRESH=0.5 
E_ABMGATE    YINT 0 VALUE {{IF(V(A) > {VTHRESH}  &  
+ V(B) > {VTHRESH},{VDD},{VSS})}}
RINT YINT Y 1
CINT Y 0 1n
.ENDS AND2_BASIC_GEN
*$
.SUBCKT AND3_BASIC_GEN A B C Y PARAMS: VDD=1 VSS=0 VTHRESH=0.5 
E_ABMGATE    YINT 0 VALUE {{IF(V(A) > {VTHRESH}  &  
+ V(B) > {VTHRESH} &
+ V(C) > {VTHRESH},{VDD},{VSS})}}
RINT YINT Y 1
CINT Y 0 1n
.ENDS AND3_BASIC_GEN
*$
.SUBCKT AND4_BASIC_GEN A B C D Y PARAMS: VDD=1 VSS=0 VTHRESH=0.5 
E_ABMGATE    YINT 0 VALUE {{IF(V(A) > {VTHRESH}  &  
+ V(B) > {VTHRESH} &
+ V(C) > {VTHRESH} &
+ V(D) > {VTHRESH},{VDD},{VSS})}}
RINT YINT Y 1
CINT Y 0 1n
.ENDS AND4_BASIC_GEN
*$
.SUBCKT NAND2_BASIC_GEN A B Y PARAMS: VDD=1 VSS=0 VTHRESH=0.5 
E_ABMGATE    YINT 0 VALUE {{IF(V(A) > {VTHRESH}  &  
+ V(B) > {VTHRESH},{VSS},{VDD})}}
RINT YINT Y 1
CINT Y 0 1n
.ENDS NAND2_BASIC_GEN
*$
.SUBCKT NAND3_BASIC_GEN A B C Y PARAMS: VDD=1 VSS=0 VTHRESH=0.5 
E_ABMGATE    YINT 0 VALUE {{IF(V(A) > {VTHRESH}  &  
+ V(B) > {VTHRESH} &
+ V(C) > {VTHRESH},{VSS},{VDD})}}
RINT YINT Y 1
CINT Y 0 1n
.ENDS NAND3_BASIC_GEN
*$
.SUBCKT NAND4_BASIC_GEN A B C D Y PARAMS: VDD=1 VSS=0 VTHRESH=0.5 
E_ABMGATE    YINT 0 VALUE {{IF(V(A) > {VTHRESH}  &  
+ V(B) > {VTHRESH} &
+ V(C) > {VTHRESH} &
+ V(D) > {VTHRESH},{VSS},{VDD})}}
RINT YINT Y 1
CINT Y 0 1n
.ENDS NAND4_BASIC_GEN
*$
.SUBCKT OR2_BASIC_GEN A B Y PARAMS: VDD=1 VSS=0 VTHRESH=0.5 
E_ABMGATE    YINT 0 VALUE {{IF(V(A) > {VTHRESH}  |  
+ V(B) > {VTHRESH},{VDD},{VSS})}}
RINT YINT Y 1
CINT Y 0 1n
.ENDS OR2_BASIC_GEN
*$
.SUBCKT OR3_BASIC_GEN A B C Y PARAMS: VDD=1 VSS=0 VTHRESH=0.5 
E_ABMGATE    YINT 0 VALUE {{IF(V(A) > {VTHRESH}  |  
+ V(B) > {VTHRESH} |
+ V(C) > {VTHRESH},{VDD},{VSS})}}
RINT YINT Y 1
CINT Y 0 1n
.ENDS OR3_BASIC_GEN
*$
.SUBCKT OR4_BASIC_GEN A B C D Y PARAMS: VDD=1 VSS=0 VTHRESH=0.5 
E_ABMGATE    YINT 0 VALUE {{IF(V(A) > {VTHRESH}  |  
+ V(B) > {VTHRESH} |
+ V(C) > {VTHRESH} |
+ V(D) > {VTHRESH},{VDD},{VSS})}}
RINT YINT Y 1
CINT Y 0 1n
.ENDS OR4_BASIC_GEN
*$
.SUBCKT NOR2_BASIC_GEN A B Y PARAMS: VDD=1 VSS=0 VTHRESH=0.5 
E_ABMGATE    YINT 0 VALUE {{IF(V(A) > {VTHRESH}  |  
+ V(B) > {VTHRESH},{VSS},{VDD})}}
RINT YINT Y 1
CINT Y 0 1n
.ENDS NOR2_BASIC_GEN
*$
.SUBCKT NOR3_BASIC_GEN A B C Y PARAMS: VDD=1 VSS=0 VTHRESH=0.5 
E_ABMGATE    YINT 0 VALUE {{IF(V(A) > {VTHRESH}  |  
+ V(B) > {VTHRESH} |
+ V(C) > {VTHRESH},{VSS},{VDD})}}
RINT YINT Y 1
CINT Y 0 1n
.ENDS NOR3_BASIC_GEN
*$
.SUBCKT NOR4_BASIC_GEN A B C D Y PARAMS: VDD=1 VSS=0 VTHRESH=0.5 
E_ABMGATE    YINT 0 VALUE {{IF(V(A) > {VTHRESH}  |  
+ V(B) > {VTHRESH} |
+ V(C) > {VTHRESH} |
+ V(D) > {VTHRESH},{VSS},{VDD})}}
RINT YINT Y 1
CINT Y 0 1n
.ENDS NOR4_BASIC_GEN
*$
.SUBCKT NOR5_BASIC_GEN A B C D E Y PARAMS: VDD=1 VSS=0 VTHRESH=0.5 
E_ABMGATE YINT 0 VALUE {{IF(V(A) > {VTHRESH}  |  
+ V(B) > {VTHRESH} |
+ V(C) > {VTHRESH} |
+ V(D) > {VTHRESH} |
+ V(E) > {VTHRESH},{VSS},{VDD})}}
RINT YINT Y 1
CINT Y 0 1n
.ENDS NOR5_BASIC_GEN
*$
.SUBCKT NOR6_BASIC_GEN A B C D E F Y PARAMS: VDD=1 VSS=0 VTHRESH=0.5 
E_ABMGATE YINT 0 VALUE {{IF(V(A) > {VTHRESH}  |  
+ V(B) > {VTHRESH} |
+ V(C) > {VTHRESH} |
+ V(D) > {VTHRESH} |
+ V(E) > {VTHRESH} |
+ V(F) > {VTHRESH},{VSS},{VDD})}}
RINT YINT Y 1
CINT Y 0 1n
.ENDS NOR6_BASIC_GEN
*$
.SUBCKT INV_BASIC_GEN A  Y PARAMS: VDD=1 VSS=0 VTHRESH=0.5 
E_ABMGATE    YINT 0 VALUE {{IF(V(A) > {VTHRESH} , 
+ {VSS},{VDD})}}
RINT YINT Y 1
CINT Y 0 1n
.ENDS INV_BASIC_GEN
*$
.SUBCKT XOR2_BASIC_GEN A B Y PARAMS: VDD=1 VSS=0 VTHRESH=0.5 
E_ABMGATE  YINT 0 VALUE {{IF(V(A) > {VTHRESH}  ^  
+ V(B) > {VTHRESH},{VDD},{VSS})}}
RINT YINT Y 1
CINT Y 0 1n
.ENDS XOR2_BASIC_GEN
*$
.SUBCKT XNOR2_BASIC_GEN A B Y PARAMS: VDD=1 VSS=0 VTHRESH=0.5 
E_ABMGATE  YINT 0 VALUE {{IF(V(A) > {VTHRESH}  ^  
+ V(B) > {VTHRESH},{VSS},{VDD})}}
RINT YINT Y 1
CINT Y 0 1n
.ENDS XNOR2_BASIC_GEN
*$
.SUBCKT MUX2_BASIC_GEN A B S Y PARAMS: VDD=1 VSS=0 VTHRESH=0.5 
E_ABMGATE  YINT 0 VALUE {{IF(V(S) > {VTHRESH},  
+ V(B),V(A))}}
RINT YINT Y 1
CINT Y 0 1n
.ENDS MUX2_BASIC_GEN
*$
.SUBCKT INV_DELAY_BASIC_GEN A  Y PARAMS: VDD=1 VSS=0 VTHRESH=0.5 DELAY = 10n 
E_ABMGATE1    YINT1 0 VALUE {{IF(V(A) > {VTHRESH} , 
+ {VDD},{VSS})}}
RINT YINT1 YINT2 1
CINT YINT2 0 {DELAY*1.3}
E_ABMGATE2    YINT3 0 VALUE {{IF(V(YINT2) > {VTHRESH} , 
+ {VSS},{VDD})}}
RINT2 YINT3 Y 1
CINT2 Y 0 1n
.ENDS INV_DELAY_BASIC_GEN
*$
.SUBCKT BUF_DELAY_BASIC_GEN A  Y PARAMS: VDD=1 VSS=0 VTHRESH=0.5 DELAY = 10n 
E_ABMGATE1    YINT1 0 VALUE {{IF(V(A) > {VTHRESH} , 
+ {VDD},{VSS})}}
RINT YINT1 YINT2 1
CINT YINT2 0 {DELAY*1.3}
E_ABMGATE2    YINT3 0 VALUE {{IF(V(YINT2) > {VTHRESH} , 
+ {VDD},{VSS})}}
RINT2 YINT3 Y 1
CINT2 Y 0 1n
.ENDS BUF_DELAY_BASIC_GEN
*$
.SUBCKT BUF_BASIC_GEN A  Y PARAMS: VDD=1 VSS=0 VTHRESH=0.5 
E_ABMGATE    YINT 0 VALUE {{IF(V(A) > {VTHRESH} , 
+ {VDD},{VSS})}}
RINT YINT Y 1
CINT Y 0 1n
.ENDS BUF_BASIC_GEN
*$
.SUBCKT SRLATCHSHP_BASIC_GEN S R Q QB PARAMS: VDD=1 VSS=0 VTHRESH=0.5 
GQ 0 Qint VALUE = {IF(V(S) > {VTHRESH},5,IF(V(R)>{VTHRESH},-5, 0))}
CQint Qint 0 1n
RQint Qint 0 1000MEG
D_D10 Qint MY5 D_D1
V1 MY5 0 {VDD}
D_D11 MYVSS Qint D_D1
V2 MYVSS 0 {VSS} 
EQ Qqq 0 Qint 0 1
X3 Qqq Qqqd1 BUF_BASIC_GEN PARAMS: VDD={VDD} VSS={VSS} VTHRESH={VTHRESH}
RQq Qqqd1 Q 1
EQb Qbr 0 VALUE = {IF( V(Q) > {VTHRESH}, {VSS},{VDD})}
RQb Qbr QB 1 
Cdummy1 Q 0 1n 
Cdummy2 QB 0 1n 
.IC V(Qint) {VSS}
.ENDS SRLATCHSHP_BASIC_GEN
*$
.SUBCKT SRLATCHRHP_BASIC_GEN S R Q QB PARAMS: VDD=1 VSS=0 VTHRESH=0.5 
GQ 0 Qint VALUE = {IF(V(R) > {VTHRESH},-5,IF(V(S)>{VTHRESH},5, 0))}
CQint Qint 0 1n
RQint Qint 0 1000MEG
D_D10 Qint MY5 D_D1
V1 MY5 0 {VDD}
D_D11 MYVSS Qint D_D1
V2 MYVSS 0 {VSS} 
EQ Qqq 0 Qint 0 1
X3 Qqq Qqqd1 BUF_BASIC_GEN PARAMS: VDD={VDD} VSS={VSS} VTHRESH={VTHRESH}
RQq Qqqd1 Q 1
EQb Qbr 0 VALUE = {IF( V(Q) > {VTHRESH}, {VSS},{VDD})}
RQb Qbr QB 1 
Cdummy1 Q 0 1n 
Cdummy2 QB 0 1n
.IC V(Qint) {VSS}
.ENDS SRLATCHRHP_BASIC_GEN
*$
.SUBCKT SBRBLATCHRHP_BASIC_GEN SB RB Q QB PARAMS: VDD=1 VSS=0 VTHRESH=0.5 
GQ 0 Qint VALUE = {IF(V(RB) < {VTHRESH},-5,IF(V(SB) < {VTHRESH},5, 0))}
CQint Qint 0 1n
RQint Qint 0 1000MEG
D_D10 Qint MY5 D_D1
V1 MY5 0 {VDD}
D_D11 MYVSS Qint D_D1
V2 MYVSS 0 {VSS} 
EQ Qqq 0 Qint 0 1
X3 Qqq Qqqd1 BUF_BASIC_GEN PARAMS: VDD={VDD} VSS={VSS} VTHRESH={VTHRESH}
RQq Qqqd1 Q 1
EQb Qbr 0 VALUE = {IF( V(Q) > {VTHRESH}, {VSS},{VDD})}
RQb Qbr QB 1 
.IC V(Qint) {VSS}
.ENDS SBRBLATCHRHP_BASIC_GEN
*$
.SUBCKT SBRBLATCHSHP_BASIC_GEN SB RB Q QB PARAMS: VDD=1 VSS=0 VTHRESH=0.5 
GQ 0 Qint VALUE = {IF(V(SB) < {VTHRESH},5,IF(V(RB) < {VTHRESH},-5, 0))}
CQint Qint 0 1n
RQint Qint 0 1000MEG
D_D10 Qint MY5 D_D1
V1 MY5 0 {VDD}
D_D11 MYVSS Qint D_D1
V2 MYVSS 0 {VSS} 
EQ Qqq 0 Qint 0 1
X3 Qqq Qqqd1 BUF_BASIC_GEN PARAMS: VDD={VDD} VSS={VSS} VTHRESH={VTHRESH}
RQq Qqqd1 Q 1
EQb Qbr 0 VALUE = {IF( V(Q) > {VTHRESH}, {VSS},{VDD})}
RQb Qbr QB 1 
.IC V(Qint) {VSS}
.ENDS SBRBLATCHSHP_BASIC_GEN
*$
.SUBCKT DFFSBRB_SHPBASIC_GEN Q QB CLK D RB SB PARAMS: VDD=1 VSS=0 VTHRESH=0.5 
X1 CLK CLKdel INV_DELAY_BASIC_GEN PARAMS: VDD={VDD} VSS={VSS} VTHRESH={VTHRESH} DELAY = 15n
X2 CLK CLKdel CLKint AND2_BASIC_GEN PARAMS: VDD={VDD} VSS={VSS} VTHRESH={VTHRESH}
GQ 0 Qint VALUE = {IF(V(SB) < {VTHRESH},5,IF(V(RB)<{VTHRESH},-5, IF(V(CLKint)> {VTHRESH}, 
+ IF(V(D)> {VTHRESH},5,-5),0)))}
CQint Qint 0 1n
RQint Qint 0 1000MEG
D_D10 Qint MY5 D_D1
V1 MY5 0 {VDD}
D_D11 MYVSS Qint D_D1
V2 MYVSS 0 {VSS} 
EQ Qqq 0 Qint 0 1
X3 Qqq Qqqd1 BUF_DELAY_BASIC_GEN PARAMS: VDD={VDD} VSS={VSS} VTHRESH={VTHRESH} DELAY = 20n
RQq Qqqd1 Q 1
EQb Qbr 0 VALUE = {IF( V(Q) > {VTHRESH}, {VSS},{VDD})}
RQb Qbr Qb 1 
Cdummy1 Q 0 1nF 
Cdummy2 QB 0 1nF 
.IC V(Qint) {VSS}
.ENDS DFFSBRB_SHPBASIC_GEN
*$
.SUBCKT DFFSR_SHPBASIC_GEN Q QB CLK D R S PARAMS: VDD=1 VSS=0 VTHRESH=0.5 
X1 CLK CLKdel INV_DELAY_BASIC_GEN PARAMS: VDD={VDD} VSS={VSS} VTHRESH={VTHRESH} DELAY = 15n
X2 CLK CLKdel CLKint AND2_BASIC_GEN PARAMS: VDD={VDD} VSS={VSS} VTHRESH={VTHRESH} 
GQ 0 Qint VALUE = {IF(V(S) > {VTHRESH},5,IF(V(R) > {VTHRESH},-5, IF(V(CLKint)> {VTHRESH}, 
+ IF(V(D)> {VTHRESH},5,-5),0)))}
CQint Qint 0 1n
RQint Qint 0 1000MEG
D_D10 Qint MY5 D_D1
V1 MY5 0 {VDD}
D_D11 MYVSS Qint D_D1
V2 MYVSS 0 {VSS} 
EQ Qqq 0 Qint 0 1
X3 Qqq Qqqd1 BUF_DELAY_BASIC_GEN PARAMS: VDD=1 VSS=0 VTHRESH=0.5 DELAY = 20n
RQq Qqqd1 Q 1
EQb Qbr 0 VALUE = {IF( V(Q) > {VTHRESH}, {VSS},{VDD})}
RQb Qbr Qb 1 
Cdummy1 Q 0 1nF 
Cdummy2 QB 0 1nF 
.IC V(Qint) {VSS}
.ENDS DFFSR_SHPBASIC_GEN
*$
.SUBCKT DFFSBRB_RHPBASIC_GEN Q QB CLK D RB SB PARAMS: VDD=1 VSS=0 VTHRESH=0.5 
X1 CLK CLKdel INV_DELAY_BASIC_GEN PARAMS: VDD={VDD} VSS={VSS} VTHRESH={VTHRESH} DELAY = 15n
X2 CLK CLKdel CLKint AND2_BASIC_GEN PARAMS: VDD={VDD} VSS={VSS} VTHRESH={VTHRESH} 
GQ 0 Qint VALUE = {IF(V(RB) < {VTHRESH},-5,IF(V(SB)< {VTHRESH},5, IF(V(CLKint)> {VTHRESH}, 
+ IF(V(D)> {VTHRESH},5,-5),0)))}
CQint Qint 0 1n
RQint Qint 0 1000MEG
D_D10 Qint MY5 D_D1
V1 MY5 0 5
D_D11 0 Qint D_D1 
EQ Qqq 0 Qint 0 1
X3 Qqq Qqqd1 BUF_DELAY_BASIC_GEN PARAMS: VDD={VDD} VSS={VSS} VTHRESH={VTHRESH} DELAY = 20n
RQq Qqqd1 Q 1
EQb Qbr 0 VALUE = {IF( V(Q) > {VTHRESH}, {VSS},{VDD})}
RQb Qbr Qb 1 
Cdummy1 Q 0 1nF 
Cdummy2 QB 0 1nF 
.IC V(Qint) {VSS}
.ENDS DFFSBRB_RHPBASIC_GEN
*$
.SUBCKT DFFSR_RHPBASIC_GEN Q QB CLK D R S PARAMS: VDD=1 VSS=0 VTHRESH=0.5 
X1 CLK CLKdel INV_DELAY_BASIC_GEN PARAMS: VDD={VDD} VSS={VSS} VTHRESH={VTHRESH} DELAY = 15n
X2 CLK CLKdel CLKint AND2_BASIC_GEN PARAMS: VDD={VDD} VSS={VSS} VTHRESH={VTHRESH}  
GQ 0 Qint VALUE = {IF(V(R) > {VTHRESH},-5,IF(V(S) > {VTHRESH},5, IF(V(CLKint)> {VTHRESH}, 
+ IF(V(D)> {VTHRESH},5,-5),0)))}
CQint Qint 0 1n
RQint Qint 0 1000MEG
D_D10 Qint MY5 D_D1
V1 MY5 0 {VDD}
D_D11 MYVSS Qint D_D1
V2 MYVSS 0 {VSS} 
EQ Qqq 0 Qint 0 1
X3 Qqq Qqqd1 BUF_DELAY_BASIC_GEN PARAMS: VDD={VDD} VSS={VSS} VTHRESH={VTHRESH} DELAY = 20n
RQq Qqqd1 Q 1
EQb Qbr 0 VALUE = {IF( V(Q) > {VTHRESH}, {VSS},{VDD})}
RQb Qbr Qb 1 
Cdummy1 Q 0 1nF 
Cdummy2 QB 0 1nF 
.IC V(Qint) {VSS}
.ENDS DFFSR_RHPBASIC_GEN
*$
.SUBCKT MONONEG_PS in Q Qn PARAMS: PW=1u 
VS VSUP 0 DC 1
GIN VSUP YA VALUE={IF(V(IN)<0.5, V(VSUP)/1000K, 0)}
GDIS YA 0 VALUE={IF(V(IN)<0.5,0, V(YA)/1m)}
CIN YA 0 1n IC=0
RIN YA 0 1e11
EABM1 YTD 0 VALUE={IF(V(YA)> {PW*1000}, 0, 1)}
RYTD YTD 0 1e11
EXOR P 0 VALUE={IF(V(YTD) > 0.5 ^ V(IN) > .5, 1, 0)}
ROUTpp2 P 0 1e11
EAND1 Q1 0 VALUE={ IF(V(P)>0.5 & V(YTD)>0.5, 1, 0)}
Ro1 Q1 Q 1m
Co1 Q 0 1p IC=0
ROUT2 Q 0 1e11
EAND2 Qn1 0 VALUE={ IF(V(Q)>0.5, 0, 1)}
Ro2 Qn1 Qn 1m
Co2 Qn 0 1p
ROUT4 Qn 0 1e11
.ENDS MONONEG_PS
*$
.MODEL DI_B260 D  ( IS=6.08u RS=14.9m BV=60.0 IBV=500u
+ CJO=370p  M=0.333 N=1.55 TT=1.44n )
*$
.SUBCKT VCVSCLIP_PS YP YN POS NEG PARAMS: gain=1 vomax=1 vomin=-1
RP POS 0 1e11
CP POS 0 0.01pF
RN NEG 0 1e11
CN NEG 0 0.01pF
ROUTN YN 0 1e11
COUTN YN 0 0.01pF
EVCLP YP YN VALUE={LIMIT((V(POS)-V(NEG))*{gain},{vomax},{vomin})}
RO YP 0 1e11
.ENDS VCVSCLIP_PS
*$
.SUBCKT ss2gm SS_TR GM
EPOLY  GM 0 TABLE {V(SS_TR)} = (0.4,11u) (0.5,11.8u) (0.6,16.8u) (0.7,24.2u) (0.8,30.1u) 
+ (0.9,34.4u)(1.0,37.4u) (1.1,39.3u) (1.2,40u)
.ENDS
*$
.SUBCKT vfb2freq FB VOUT
EPOLY  VOUT 0 TABLE {V(FB)} = (0,0.044776119) (0.1,0.057142857) (0.15,0.085227273) (0.2,0.137614679) (0.25,0.208333333) 
+ (0.3,0.277777778)(0.35,0.333333333) (0.4,0.361445783) (0.5,0.375)(0.6, 0.375) (0.7,0.375) (0.75,0.375)
.ENDS
*$
.SUBCKT DFFSBRB_nodelay Q QB CLK D RB SB PARAMS: VDD=1 VSS=0 VTHRESH=0.5 
X1 CLK CLKdel INV_DELAY_BASIC_GEN PARAMS: VDD={VDD} VSS={VSS} VTHRESH={VTHRESH} DELAY = 5n
X2 CLK CLKdel CLKint AND2_BASIC_GEN PARAMS: VDD={VDD} VSS={VSS} VTHRESH={VTHRESH} 
GQ 0 Qint VALUE = {IF(V(RB) < {VTHRESH},-5,IF(V(SB)< {VTHRESH},5, IF(V(CLKint)> {VTHRESH}, 
+ IF(V(D)> {VTHRESH},5,-5),0)))}
CQint Qint 0 1n
RQint Qint 0 1000MEG
D_D10 Qint MY5 D_D1
V1 MY5 0 5
D_D11 0 Qint D_D1 
EQ Qqq 0 Qint 0 1
X3 Qqq Qqqd1 BUF_DELAY_BASIC_GEN PARAMS: VDD={VDD} VSS={VSS} VTHRESH={VTHRESH} DELAY = 5n
RQq Qqqd1 Q 1
EQb Qbr 0 VALUE = {IF( V(Q) > {VTHRESH}, {VSS},{VDD})}
RQb Qbr Qb 1 
Cdummy1 Q 0 1nF 
Cdummy2 QB 0 1nF 
.IC V(Qint) {VSS}
.ENDS DFFSBRB_nodelay
*$
.subckt LOAD_MODULE VOUT GND PARAMS: VOUT=1 ILOAD=1 ILOAD2=2 TD=1m TR=10u TF=10u PW=100u
X_S1    VLOAD GND VOUT GND LOAD_MODULE_S1 PARAMS: VOUT={VOUT} ILOAD={ILOAD} ILOAD2={ILOAD2}
V_V1         VLOAD GND  
+PULSE 0 1 {TD} {TR} {TF} {PW} 2
.ends LOAD_MODULE
*$
.subckt LOAD_MODULE_S1 1 2 3 4 PARAMS: VOUT=1 ILOAD=1 ILOAD2=2  
S_S1         3 4 1 2 _S1
RS_S1         1 2 1G
.MODEL         _S1 VSWITCH Roff={{VOUT}/{ILOAD}} Ron={{VOUT}/{ILOAD2}}
+  Voff=0.2 Von=0.8
.ends LOAD_MODULE_S1
*$
