* BEGIN MODEL LMV716
*///////////////////////////////////////////////////////////////////
*Rev.a October-2006
*//////////////////////////////////////////////////////////////////////
* (C) National Semiconductor, Corporation.
* Models developed and under copyright by:
* National Semiconductor, Corporation.  
*/////////////////////////////////////////////////////////////////////
* Legal Notice:  
* The model may be copied, and distributed without any modifications;
* however, reselling or licensing the material is illegal.
* We reserve the right to make changes to the model without prior notice. 
* Pspice Models are provided "AS IS, WITH NO WARRANTY OF ANY KIND" 
*////////////////////////////////////////////////////////////////////
* MODEL FEATURES INCLUDE OUTPUT SWING, OUTPUT CURRENT THRU
* THE SUPPLY RAILS, OUTPUT SWING VS IO, OUTPUT CURRENT LIMIT,
* OPEN LOOP GAIN AND PHASE, SLEW RATE, COMMON MODE REJECTION
* WITH FREQ EFFECTS, POWER SUPPLY REJECTION WITH FREQ EFFECTS,
* INPUT VOLTAGE NOISE WITH 1/F, INPUT CURRENT NOISE, INPUT
* CAPACITANCE, INPUT BIAS CURRENT, INPUT COMMON MODE RANGE,
* INPUT OFFSET, HIGH CLOAD EFFECTS, QUIESCENT CURRENT VS
* VOLTAGE, AND QUIESCENT CURRENT VS TEMPERATURE.
*/////////////////////////////////////
* Note:  Model is for single device only and simulated
*        supply current is 1/2 of the total device current.
*//////////////////////////////
*MODEL TEMP RANGE IS -40 TO +85 DEG C.
*NOTE THAT MODEL IS FUNCTIONAL OVER THIS RANGE BUT NOT ALL
*PARAMETERS TRACK THOSE OF THE REAL PART.
*//////////////////////////////
* PINOUT ORDER +IN -IN +V -V OUT
* PINOUT ORDER  3   2   8  4  1
.SUBCKT LMV716 3 2 8 4 1
G3 20 42 54 42 0.2E-3
R45 42 20 1.5E8
C12 21 1 9.9E-12
R46 11 48 2E3
R47 11 50 2E3
C13 48 50 2E-12
C14 30 0 9E-12
C15 29 0 9E-12
C16 1 0 0.5E-12
D13 44 9 DD
D14 55 46 DD
Q15 55 17 23 QLP
V18 30 49 -1.3E-3
M19 56 57 23 23 PIN L=6U W=500U
E17 40 0 30 0 1
E18 39 0 2 0 1
M23 57 57 23 23 PIN L=6U W=500U
V21 56 13 0.3
R59 1 45 4
R60 43 1 2
J1 58 30 58 JNC
J2 58 29 58 JNC
J3 29 59 29 JNC
J4 30 59 30 JNC
E20 60 42 50 48 1
R62 60 54 1E4
C23 54 42 1E-12
G7 61 42 20 42 -1E-3
G8 42 62 20 42 1E-3
G9 42 63 51 11 1E-3
G10 64 42 23 47 1E-3
D17 64 61 DD
D18 62 63 DD
R66 61 64 100E6
R67 63 62 100E6
R68 64 23 1E3
R69 11 63 1E3
E23 23 52 23 64 1
E24 53 11 63 11 1
Q20 9 10 11 QLN
R3 12 13 2
R4 14 13 2
R10 10 15 1E3
R11 16 17 1E3
R12 18 8 3.6
R13 4 19 3.6
R16 20 21 1K
R17 22 23 3.6
R18 11 24 3.6
D5 1 8 DD
D6 4 1 DD
D7 25 0 DIN
D8 26 0 DIN
I8 0 25 0.1E-3
I9 0 26 0.1E-3
E2 11 0 4 0 1
E3 23 0 8 0 1
D9 27 0 DVN
D10 28 0 DVN
I10 0 27 1E-3
I11 0 28 1E-3
E4 29 2 27 28 0.086
G2 30 2 25 26 5E-6
R22 4 8 30E3
E5 31 0 23 0 1
E6 32 0 11 0 1
E7 33 0 34 0 1
R30 31 35 1E5
R31 32 36 1E5
R32 33 37 1E5
R33 0 35 10
R34 0 36 10
R35 0 37 10
E10 38 3 37 0 0.5
R36 39 34 1E3
R37 34 40 1E3
C6 31 35 1E-12
C7 32 36 1E-12
C8 33 37 1E-9
E11 41 38 36 0 -0.18
E12 30 41 35 0 1.7
E14 42 11 23 11 0.6
D11 20 23 DD
D12 11 20 DD
M1 43 44 19 19 NOUT L=3U W=300U
M2 45 46 18 18 POUT L=3U W=300U
M3 47 47 22 22 POUT L=3U W=300U
M4 48 49 12 12 PIN L=3U W=80U
M5 50 29 14 14 PIN L=3U W=80U
M8 51 51 24 24 NOUT L=3U W=300U
R43 52 46 100
R44 53 44 100
R70 62 42 1E6
R71 63 42 1E6
R72 42 64 1E6
R73 42 61 1E6
R75 41 30 1E9
R76 38 41 1E9
R77 3 38 1E9
R78 2 29 1E9
R79 42 54 1E9
R81 52 23 1E9
R82 11 53 1E9
R83 34 0 1E9
G14 57 11 65 0 148E-6
G15 47 51 65 0 180E-6
V51 65 0 1
I21 8 4 1.1E-3
V78 23 58 0
V79 59 11 0.1
R155 47 23 1E8
R156 11 51 1E8
R157 19 44 1E8
R158 18 46 1E8
G34 29 0 66 0 1.12E-12
I40 29 0 70E-15
I45 0 67 1E-3
D43 67 0 DD
V111 67 68 0.7
R293 0 68 1E6
E92 69 0 68 0 -571
R294 0 69 1E6
R295 70 69 1E6
D44 71 70 DD
V112 71 72 23.9
V113 70 66 23.3
I46 0 73 1E-3
D45 73 0 DD
V114 73 74 0.7
R296 0 74 1E6
E93 72 0 74 0 1
G35 30 0 66 0 1.12E-12
I47 30 0 70E-15
E98 23 16 8 18 7.2
E99 15 11 19 4 4
R309 0 72 1E9
R310 0 66 1E9
R335 57 23 1E12
R336 20 1 9E9
R340 0 65 1E12
R341 0 65 1E12
G36 8 4 69 0 4E-6
.MODEL DVN D KF=9E-12 IS=1E-16
.MODEL DD D
.MODEL DIN D
.MODEL QLN NPN
.MODEL QLP PNP
.MODEL JNC NJF
.MODEL POUT PMOS KP=200U VTO=-0.7
.MODEL NOUT NMOS KP=200U VTO=0.7
.MODEL PIN PMOS KP=200U VTO=-0.7
.MODEL NIN NMOS KP=200U VTO=0.7
.ENDS
* END MODEL LMV716
