* BEGIN MODEL LMV793
* Rev. a 8/2008
*//////////////////////////////////////////////////////////////////////
* (C) National Semiconductor, Corporation.
* Models developed and under copyright by:
* National Semiconductor, Corporation.  
*/////////////////////////////////////////////////////////////////////
* Legal Notice:  
* The model may be copied, and distributed without any modifications;
* however, reselling or licensing the material is illegal.
* We reserve the right to make changes to the model without prior notice. 
* PSPICE Models are provided "AS IS, WITH NO WARRANTY OF ANY KIND" 
*////////////////////////////////////////////////////////////////////
* PINOUT ORDER +IN -IN +V -V OUT
* PINOUT ORDER  3   4   5  2  1
.SUBCKT LMV793 3 4 5 2 1
*////////////////////////////////////////////////////////////////////
* USE V44 BELOW TO ADJUST OFFSET
* PRESENT VALUE OF 22 UV GIVES 100UV NET
* ADJUST UP OR DN FROM 22 UV
V44 27 11 22E-6
*/////////////////////////////////////////////////////////////////
* MODEL FEATURES INCLUDE OUTPUT SWING, OUTPUT CURRENT THRU
* THE SUPPLY RAILS, OUTPUT CURRENT LIMIT, OPEN LOOP GAIN
* AND PHASE WITH RL AND CL EFFECTS, SLEW RATE, COMMON MODE
* REJECTION WITH FREQ EFFECTS, POWER SUPPLY REJECTION WITH
* FREQ EFFECTS, INPUT VOLTAGE NOISE WITH 1/F, INPUT CURRENT
* NOISE, INPUT BIAS CURRENT, INPUT BIAS CURRENT TEMPERATURE
* EFFECTS, INPUT COMMON MODE RANGE, INPUT OFFSET VOLTAGE
* WITH TEMPERATURE EFFECTS, AND QUIESCENT CURRENT VS
* VOLTAGE AND TEMPERATURE.
*/////////////////////////////////////////////////////////
* NOTE
* USE GMIN OF 1E-13 TO 1E-14 FOR ACCURATE INPUT BIAS CURRENT
* AT ROOM AND COLD
*//////////////////////////////////////////////////////////
D17 6 0 DIN
D18 7 0 DIN
I14 0 6 0.1E-3
I15 0 7 0.1E-3
D19 8 0 DVN
D20 9 0 DVN
I16 0 8 0.1E-3
I17 0 9 0.1E-3
E15 10 4 8 9 0.52
G5 11 10 6 7 1.1E-14
E16 12 0 13 0 1
E17 14 0 15 0 1
E18 16 0 17 0 1
R56 12 18 1E6
R57 14 19 1E6
R58 16 20 3E3
R59 0 18 10
R60 0 19 10
R61 0 20 10
E19 21 22 23 0 0.33
R62 24 17 1E3
R63 17 25 1E3
C15 12 18 1E-12
C16 14 19 1E-12
C17 16 20 3E-9
E20 26 21 19 0 -2
E21 27 26 18 0 3
R64 0 28 1E12
G12 11 10 29 0 1.1E-6
R136 0 29 10E3
R137 0 29 10E3
R138 22 21 1E9
R139 21 26 1E9
R140 26 27 1E9
E54 25 0 11 0 1
E55 24 0 10 0 1
C23 11 10 0.05E-12
E57 22 3 30 0 -5.61E-4
R146 22 3 1E9
R147 0 28 1E12
Q41 31 32 15 QLN
R148 32 33 1E3
R149 34 35 1E3
R150 36 13 5
R151 15 37 5
R153 38 39 1
R154 40 13 5
R155 15 41 5
D22 42 5 DD
D23 2 42 DD
E58 15 0 2 0 1
E59 13 0 5 0 1
R156 2 5 10E6
E67 43 15 13 15 0.5
D24 44 13 DD
D25 15 45 DD
R157 46 47 100
R158 48 49 100
G14 38 43 50 43 0.1E-3
R159 43 38 25E6
C24 39 51 2.05E-12
C25 42 0 0.5E-12
D26 49 31 DD
D27 52 47 DD
Q42 52 35 13 QLP
R160 42 53 1
R161 54 42 1
E61 55 43 56 57 1
R162 55 50 1E4
C26 50 43 0.3E-12
G15 58 43 38 43 -1E-3
G16 43 59 38 43 1E-3
G17 43 60 61 15 1E-3
G18 62 43 13 63 1E-3
D28 62 58 DD
D29 59 60 DD
R163 58 62 100E6
R164 60 59 100E6
R165 62 13 1E3
R166 15 60 1E3
R167 59 43 1E6
R168 60 43 1E6
R169 43 62 1E6
R170 43 58 1E6
G19 5 2 64 0 0.95E-3
R171 43 50 1E9
R172 46 13 1E9
R173 15 48 1E9
G20 63 61 28 0 0.1E-3
L2 42 1 0.4E-9
C116 11 0 15E-12
C117 10 0 15E-12
R175 42 1 400
R176 63 13 1E8
R177 15 61 1E8
R178 37 49 1E8
R179 36 47 1E8
R180 0 28 1E9
E99 13 34 13 36 1.9
E100 33 15 37 15 6.5
E124 51 0 42 0 1
R219 38 51 2.6E8
I30 0 65 1E-3
D46 65 0 DD
R278 0 65 10E6
V27 65 30 0.65
R279 0 30 10E6
Q52 53 47 36 QOP
Q53 54 49 37 QON
Q54 61 61 41 QON
Q55 63 63 40 QOP
E144 13 46 13 62 1
E145 48 15 60 15 1
I33 0 66 1E-3
D49 66 0 DD
R287 0 66 10E6
V130 66 67 1.2301
R288 0 67 10E6
E50 68 0 67 0 -1.75
R289 0 68 10E6
R290 69 68 10E6
M3 69 70 0 0 NEN L=2U W=1000U
G22 71 72 69 0 3E-6
V32 73 0 1
R791 73 70 1E6
M4 70 28 0 0 NEN L=2U W=100U
E51 38 45 43 15 0.7
E52 44 38 13 43 0.7
G23 5 0 53 42 1
G24 2 0 42 54 -1
V35 13 74 1
M45 75 76 77 77 NEN L=3U W=3000U
R293 77 78 1E4
R294 75 13 1E6
V36 13 77 1
C110 13 74 1E-12
E53 28 0 79 77 1
V37 75 79 1.111E-6
R295 77 79 1E12
R296 74 13 1E6
C111 78 77 3E-15
C112 13 75 3E-15
M20 80 81 77 77 NEN L=3U W=300U
M21 76 80 77 77 NEN L=3U W=300U
R297 80 13 1E4
R298 76 13 1E4
C113 13 80 55E-12
C114 13 76 150E-12
E154 82 38 28 0 30
E155 83 43 28 0 -30
V138 84 83 15
V139 85 82 -15
R300 82 0 1E12
R301 83 0 1E12
M12 43 85 38 86 PSW L=1.5U W=150U
M13 38 84 43 87 NSW L=1.5U W=150U
R302 86 0 1E12
R303 87 0 1E12
M14 78 74 13 13 PEN L=6U W=60U
E156 88 77 78 77 -1
R304 77 88 10E6
R305 77 88 10E6
V40 81 88 1
R306 77 81 10E6
E157 89 0 20 0 1
R307 89 23 3E3
R308 0 23 10
C115 89 23 3E-9
M55 90 91 2 2 NEN L=2U W=1000U
R809 90 5 100E3
E37 91 2 28 0 3
M56 64 92 0 0 NEN L=2U W=10M
R811 64 68 850E3
E60 93 0 28 0 -1
R312 0 93 10E6
R313 0 93 10E6
V43 92 93 1
R814 0 92 10E6
G25 5 2 28 0 -0.33E-3
G26 5 2 94 0 0.7E-4
E161 95 0 5 2 1
M57 94 92 0 0 NEN L=2U W=10M
R815 94 95 75E3
R317 4 10 1E9
R319 96 57 2E3
R320 96 56 2E3
C47 57 56 1.2E-12
M58 57 97 98 98 PIN L=3U W=2500U
M59 56 99 100 100 PIN L=3U W=2500U
Q58 101 71 72 QPI
R321 11 97 780
R322 10 99 780
R323 98 101 1
R324 100 101 1
V145 13 72 0.2
V46 96 15 0
D50 102 103 DL
V47 103 0 3
R325 0 102 1E8
G51 10 0 102 0 1E-10
I61 10 0 0.1E-12
G52 11 0 102 0 1E-10
I62 11 0 0.1E-12
J1 104 97 104 JC
J2 97 105 97 JC
J3 104 99 104 JC
J4 99 105 99 JC
V48 13 104 0.48
V49 105 15 0.15
.MODEL DL D IS=0.95E-11 N=1.9 XTI=1.5
.MODEL JC NJF IS=1E-18
.MODEL QPI PNP
.MODEL QON NPN RC=5
.MODEL QOP PNP RC=5
.MODEL DD D
.MODEL DVN D KF=2.5E-15
.MODEL DIN D KF=8E-17
.MODEL QLN NPN
.MODEL QLP PNP
.MODEL PIN PMOS KP=200U VTO=-0.7
.MODEL NIQS NMOS KP=200U VTO=0.7 IS=1E-18
.MODEL NEN NMOS KP=200U VTO=0.5 IS=1E-18
.MODEL PEN PMOS KP=200U VTO=-0.7 IS=1E-18
.MODEL PSW PMOS KP=200U VTO=-7.5 IS=1E-18
.MODEL NSW NMOS KP=200U VTO=7.5 IS=1E-18
.ENDS
* END MODEL LMV793
