* BEGIN MODEL LMV862
*Rev a December, 2008
*//////////////////////////////////////////////////////////////////////
* (C) National Semiconductor, Corporation.
* Models developed and under copyright by:
* National Semiconductor, Corporation.  
*/////////////////////////////////////////////////////////////////////
* Legal Notice:  
* The model may be copied, and distributed without any modifications;
* however, reselling or licensing the material is illegal.
* We reserve the right to make changes to the model without prior notice. 
* Pspice Models are provided "AS IS, WITH NO WARRANTY OF ANY KIND" 
*///////////////////////////////////////////////////////////////////
*
* MODEL FEATURES INCLUDE GAIN AND PHASE, SLEW RATE,
* VOLTAGE NOISE WITH 1/F, CURRENT NOISE, INPUT BIAS
* CURRENT WITH TEMPERATURE EFFECTS, INPUT	OFFSET
* VOLTAGE WITH TEMPERATURE EFFECTS, COMMON MODE
* RANGE, CMRR WITH FREQUENCY EFFECTS, PSRR+ WITH
* FREQUENCY EFFECTS,  PSRR- WITH FREQUENCY EFFECTS,
* OUTPUT SWING, OUTPUT CURRENT FLOWS THROUGH THE
* RAILS, OUTPUT CURRENT LIMIT, IQ AND IQ TEMPCO,
* OUTPUT IMPEDANCE, AND CAPACATIVE LOAD EFFECTS.
*
* MODEL TEMP RANGE IS -55 TO +125 DEG C.
*
* NOTE THAT MODEL IS FUNCTIONAL OVER THIS RANGE BUT
* NOT ALL PARAMETERS TRACK THOSE OF THE REAL PART.
*
*////////////////////////////////////////////////////////////
*
* BEGIN OPERATING NOTES
*
* NOTE THAT BECAUSE THE MODEL FEATURES PSRR AND CMRR,
* VOS MOVES AROUND WITH SUPPLY VOLTAGE. THE VOS VALUE
* IN THE PROGRAMMING LINE BELOW AT THE TOP OF THE
* SUBCIRCUIT LISTING IS NOT ABSOLUTE VOS BUT RELATIVE
* VOS. THE DEFAULT IS THE DATA SHEET TYPICAL VALUE.
* YOU MAY ADJUST VOS TO A VALUE DIFFERENT THAN THE
* TYPICAL BY ADJUSTING V120 UP OR DOWN FROM 300E-6.
*
* END OPERATING NOTES
*
*//////////////////////////////////////////////////////////
* The SUPPLY CURRENT MODELED IS THAT OF ONE CHANNEL
*//////////////////////////////////////////////////////
*
* PINOUT ORDER +IN -IN +V -V OUT
* PINOUT ORDER  1   3   5  2  4
.SUBCKT LMV862 1 3 5 2 4
* YOU MAY ADJUST VOS TO A VALUE DIFFERENT THAN THE
* TYPICAL BY ADJUSTING V120 UP OR DOWN FROM 300E-6
V120 28 57 300E-6
Q21 6 7 8 QLN
R633 9 10 2
R634 11 10 2
R635 7 12 1E3
R636 13 14 1E3
R637 15 5 1
R638 2 16 1
R640 17 18 400
R641 19 20 1
R642 8 21 1
D46 22 5 DD
D47 2 22 DD
D48 23 0 DIN
D49 24 0 DIN
I48 0 23 0.1E-3
I49 0 24 0.1E-3
E100 8 0 2 0 1
E101 20 0 5 0 1
D50 25 0 DVN
D51 26 0 DVN
I50 0 25 0.1E-3
I51 0 26 0.1E-3
E102 27 3 25 26 0.052
G37 28 3 23 24 7.25E-6
R643 2 5 13.5E3
E103 29 0 20 0 1
E104 30 0 8 0 1
E105 31 0 32 0 1
R644 29 33 1E5
R645 30 34 1E5
R646 31 35 1E5
R647 0 33 10
R648 0 34 10
R649 0 35 10
E106 36 1 35 0 -0.1
R650 37 32 1E3
R651 32 38 1E3
C106 29 33 0.2E-12
C107 30 34 1E-12
C108 31 35 70E-12
E107 39 36 34 0 -0.1
E108 40 39 33 0 0.1
E109 41 8 20 8 0.51
D52 17 20 DD
D53 8 17 DD
M56 42 43 16 16 NOUT L=3U W=1000U
M57 44 45 15 15 POUT L=3U W=1000U
M58 46 46 19 19 POUT L=3U W=1000U
M59 47 48 9 9 PIN L=3U W=290U
M60 49 50 11 11 PIN L=3U W=290U
M61 51 51 21 21 NOUT L=3U W=1000U
R652 52 45 100
R653 53 43 100
G38 17 41 54 41 0.2E-3
R654 41 17 6E7
C109 18 55 3.95E-12
R655 8 47 2E3
R656 8 49 2E3
C110 47 49 0.6E-12
C111 28 0 13E-12
C112 27 0 13E-12
C113 22 0 0.5E-12
D54 43 6 DD
D55 56 45 DD
Q22 56 14 20 QLP
M62 58 59 20 20 PIN L=6U W=500U
E110 38 0 28 0 1
E111 37 0 3 0 1
M63 59 59 20 20 PIN L=6U W=500U
V121 58 10 0.59
R657 22 44 4
R658 42 22 4
J5 60 28 60 JNC
J6 60 27 60 JNC
J7 27 61 27 JNC
J8 28 61 28 JNC
C114 28 62 0.1E-12
E112 63 41 49 47 1
R659 63 54 1E3
C115 54 41 0.8E-12
G39 64 41 17 41 -1E-3
G40 41 65 17 41 1E-3
G41 41 66 51 8 1E-3
G42 67 41 20 46 1E-3
D56 67 64 DD
D57 65 66 DD
R660 64 67 100E6
R661 66 65 100E6
R662 67 20 1E3
R663 8 66 1E3
E113 20 52 20 67 1
E114 53 8 66 8 1
R664 65 41 1E6
R665 66 41 1E6
R666 41 67 1E6
R667 41 64 1E6
G43 5 2 68 0 -2.8E-3
R668 39 40 1E9
R669 36 39 1E9
R670 1 36 1E9
R671 3 27 1E9
R672 41 54 1E9
R673 52 20 1E9
R674 8 53 1E9
R675 32 0 1E9
G44 59 8 69 0 205E-6
G45 46 51 69 0 500E-6
V125 69 0 1
I53 5 2 1.32E-3
L2 22 4 0.4E-9
R684 22 4 400
V127 20 60 0
V128 61 8 0.1
R685 46 20 1E8
R686 8 51 1E8
R687 16 43 1E8
R688 15 45 1E8
R689 0 68 1E9
R690 62 27 100
R691 50 27 170
R692 48 57 170
E121 20 13 5 15 4.8
E122 12 8 16 2 4.8
R715 59 20 1E12
E124 55 0 22 0 1
R717 17 55 6E8
C126 17 70 3E-12
R724 8 70 1E4
D58 71 72 DL
V144 72 0 3
R725 0 71 1E8
G53 27 0 71 0 15E-11
I66 27 0 0.2E-12
G54 28 0 71 0 15E-11
I67 28 0 0.2E-12
I68 0 73 1E-3
D59 73 0 DD
V146 73 68 0.6551
R726 0 68 1E6
E125 28 40 68 0 394E-6
R727 40 28 1E9
R729 0 69 1E12
.MODEL DVN D KF=7E-13 IS=1E-16
.MODEL DD D
.MODEL DIN D
.MODEL QLN NPN
.MODEL QLP PNP
.MODEL JNC NJF
.MODEL POUT PMOS KP=200U VTO=-0.7
.MODEL NOUT NMOS KP=200U VTO=0.7
.MODEL PIN PMOS KP=200U VTO=-0.7
.MODEL DL D IS=0.95E-11 N=1.47 XTI=1.5
.ENDS
* END MODEL LMV862
