* BEGIN MODEL LMV951
*/////////////////////////////////////////////////////////////////
*Rev.a Jan-2007
*//////////////////////////////////////////////////////////////////////
* (C) NATIONAL SEMICONDUCTOR, CORPORATION.
* MODELS DEVELOPED AND UNDER COPYRIGHT BY:
* NATIONAL SEMICONDUCTOR, CORPORATION.
*/////////////////////////////////////////////////////////////////////
* LEGAL NOTICE:
* THE MODEL MAY BE COPIED, AND DISTRIBUTED WITHOUT ANY MODIFICATIONS;
* HOWEVER, RESELLING OR LICENSING THE MATERIAL IS ILLEGAL.
* WE RESERVE THE RIGHT TO MAKE CHANGES TO THE MODEL WITHOUT PRIOR NOTICE.
* PSPICE MODELS ARE PROVIDED "AS IS, WITH NO WARRANTY OF ANY KIND"
*////////////////////////////////////////////////////////////////////
**********
* NOTE - THIS MODEL DOES NOT INCLUDE THE SHUTDOWN FEATURE
**********
* MODEL FEATURES INCLUDE OUTPUT SWING, OUTPUT CURRENT THRU
* THE SUPPLY RAILS, OUTPUT SWING VS IO, OUTPUT CURRENT LIMIT,
* OPEN LOOP GAIN AND PHASE, SLEW RATE, COMMON MODE REJECTION
* WITH FREQ EFFECTS, POWER SUPPLY REJECTION WITH FREQ EFFECTS,
* INPUT VOLTAGE NOISE WITH 1/F, INPUT CURRENT NOISE, INPUT
* CAPACITANCE, INPUT BIAS CURRENT, INPUT COMMON MODE RANGE,
* INPUT OFFSET, HIGH CLOAD EFFECTS, ANDQUIESCENT CURRENT VS
* VOLTAGE.
*///////////////////////////////////////////////////////////
*MODEL TEMP RANGE IS -40 TO +125 DEG C.
*NOTE THAT MODEL IS FUNCTIONAL OVER THIS RANGE BUT NOT ALL
*PARAMETERS TRACK THOSE OF THE REAL PART
*////////////////////////////////////////////////////////////
* PINOUT ORDER +IN -IN +V -V OUT
* PINOUT ORDER  3   4   6  2  1
.SUBCKT LMV951 3 4 6 2 1
Q20 7 8 9 QLN
R3 10 11 2
R4 10 12 2
R10 8 13 1E3
R11 14 15 1E3
R12 16 6 2
R13 2 17 2
R16 18 19 10E3
R17 20 21 2
R18 9 22 2
D5 1 6 DD
D6 2 1 DD
D7 23 0 DIN
D8 24 0 DIN
I8 0 23 0.1E-3
I9 0 24 0.1E-3
E2 9 0 2 0 1
E3 21 0 6 0 1
D9 25 0 DVN
D10 26 0 DVN
I10 0 25 1E-3
I11 0 26 1E-3
E4 27 4 25 26 0.103
G2 28 4 23 24 2.5E-3
R22 2 6 2.05E3
E5 29 0 21 0 1
E6 30 0 9 0 1
E7 31 0 32 0 1
R30 29 33 1E5
R31 30 34 1E5
R32 31 35 1E5
R33 0 33 10
R34 0 34 10
R35 0 35 10
E10 36 3 35 0 0.07
R36 37 32 1E3
R37 32 38 1E3
C6 29 33 1E-12
C7 30 34 10E-12
C8 31 35 1E-12
E11 39 36 34 0 4
E12 28 39 33 0 -0.45
E14 40 9 21 9 0.6
D11 18 21 DD
D12 9 18 DD
M1 41 42 17 17 NOUT L=3U W=1800U
M2 43 44 16 16 POUT L=3U W=1800U
M3 45 45 20 20 POUT L=3U W=1800U
M8 46 46 22 22 NOUT L=3U W=1800U
R43 47 44 100
R44 48 42 100
G3 18 40 49 40 0.125E-3
R45 40 18 5E8
C12 19 50 4E-12
R46 51 21 2E3
R47 52 21 2E3
C13 52 51 2E-12
C14 28 0 3E-12
C15 27 0 3E-12
C16 1 0 3E-12
D13 42 7 DD
D14 53 44 DD
Q15 53 15 21 QLP
V18 28 54 -1.7E-3
E17 38 0 28 0 1
E18 37 0 4 0 1
V21 10 55 -0.98
R59 1 43 2
R60 41 1 2
J1 56 28 56 JNC
J2 56 27 56 JNC
J3 27 57 27 JNC
J4 28 57 28 JNC
E20 58 40 52 51 -1
R62 58 49 1E4
C23 49 40 4E-12
G7 59 40 18 40 -1E-3
G8 40 60 18 40 1E-3
G9 40 61 46 9 1E-3
G10 62 40 21 45 1E-3
D17 62 59 DD
D18 60 61 DD
R66 59 62 100E6
R67 61 60 100E6
R68 62 21 1E3
R69 9 61 1E3
E23 21 47 21 62 1
E24 48 9 61 9 1
R70 60 40 1E6
R71 61 40 1E6
R72 40 62 1E6
R73 40 59 1E6
R75 39 28 1E9
R76 36 39 1E9
R77 3 36 1E9
R78 4 27 1E9
R79 40 49 1E9
R81 47 21 1E9
R82 9 48 1E9
R83 32 0 1E9
G14 21 63 64 0 27E-6
G15 45 46 64 0 180E-6
V51 64 0 1
I21 6 2 -0.35E-3
V78 21 56 -0.1
V79 57 9 -0.08
R155 45 21 1E8
R156 9 46 1E8
R157 17 42 1E8
R158 16 44 1E8
E98 21 14 6 16 4
E99 13 9 17 2 4
R335 9 63 1E12
R336 18 50 1E9
R340 0 64 1E12
R341 0 64 1E12
M9 63 63 9 9 NIN L=3U W=300U
M10 55 63 9 9 NIN L=3U W=300U
R342 54 65 2
R343 27 66 2
M11 52 65 11 11 NIN L=3U W=75U
M12 51 66 12 12 NIN L=3U W=75U
E100 50 0 1 0 1
I22 28 0 34E-9
I23 27 0 34E-9
.MODEL DVN D KF=9E-12 IS=1E-16
.MODEL DD D
.MODEL DIN D KF=9E-16 IS=1E-16
.MODEL QLN NPN
.MODEL QLP PNP
.MODEL JNC NJF
.MODEL POUT PMOS KP=200U VTO=-0.7
.MODEL NOUT NMOS KP=200U VTO=0.7
.MODEL PIN PMOS KP=200U VTO=-0.7
.MODEL NIN NMOS KP=200U VTO=0.7
.ENDS
* END MODEL LMV951
