*$
* LMZ21701
*****************************************************************************
* (C) Copyright 2013 Texas Instruments Incorporated. All rights reserved.                                            
*****************************************************************************
** This model is designed as an aid for customers of Texas Instruments.
** TI and its licensors and suppliers make no warranties, either expressed
** or implied, with respect to this model, including the warranties of 
** merchantability or fitness for a particular purpose.  The model is
** provided solely on an "as is" basis.  The entire risk as to its quality
** and performance is with the customer
*****************************************************************************
*
* This model is subject to change without notice. Texas Instruments
* Incorporated is not responsible for updating this model.
*
*****************************************************************************
*
** Released by: Analog eLab Design Center, Texas Instruments Inc.
* Part: LMZ21701
* Date: 18DEC2013
* Model Type: TRANSIENT
* Simulator: PSPICE
* Simulator Version: 16.2.0.p001
* EVM Order Number: LMZ21701EVM
* EVM Users Guide: SNVU180–OCTOBER 2012–REVISED OCTOBER 2013
* Datasheet: SNVS853B–JUNE 2012–REVISED NOVEMBER 2013
*
* Model Version: Final 1.00
*
*****************************************************************************
*
* Updates:
*
* Final 1.00
* Release to Web.
*
*****************************************************************************
.SUBCKT LMZ21701_TRANS EN FB PG GND VIN SS VOS VOUT PAD  
+  PARAMS: STEADY=0
R_R17         0 FSW  1m  
X_U19         N73924 N73876 d_dd PARAMS:
C_U10_C1         0 U10_PG_INT  1n  
X_U10_S1    U10_N224134 0 PG 0 PG_SGND_U10_S1 
X_U10_U5         FB U10_N14135 U10_N14627 COMP_BASIC_GEN PARAMS: VDD=1 VSS=0
+  VTHRESH=0.5
E_U10_ABM6         U10_N2234031 0 VALUE { (V(INT_VREF)*-0.05*  
+ +V(U10_OUT2))   }
R_U10_R4         U10_N2234651 U10_N222445  1  
R_U10_R1         U10_N14627 U10_PG_INT  14.4k  
X_U10_U10         U10_PG_INT EN_LOGIC UVLO_OUT U10_N224134 NAND3_BASIC_GEN
+  PARAMS: VDD=1 VSS=0 VTHRESH=500E-3
C_U10_C6         0 U10_N221839  1n  
E_U10_ABM4         U10_N2234651 0 VALUE { MAX(V(INT_VREF)*0.95,0.76)    }
E_U10_ABM7         U10_N222172 0 VALUE { (V(U10_N221839)+  
+ +V(U10_N222445))   }
R_U10_R3         U10_N222172 U10_N14135  1  
X_U10_U9         U10_PG_INT U10_OUT2 BUF_BASIC_GEN PARAMS: VDD=1 VSS=0
+  VTHRESH=0.5
C_U10_C4         0 U10_N222445  1n  
C_U10_C3         0 U10_N14135  1n  
X_U10_U7         U10_PG_INT U10_N14627 d_dd PARAMS:
R_U10_R6         U10_N2234031 U10_N221839  1  
E_U11_ABM2         U11_N222011 0 VALUE { {(LIMIT(V(SS), 0, 1.25)  
+ )*0.64}   }
E_U11_ABM5         U11_N236023 0 VALUE { IF(TIME<STEADY*50u, 1, 0)    }
X_U11_S1    U11_N226363 0 SS 0 SoftStart_U11_S1 
X_U11_S2    U11_N236023 0 U11_N234440 SS SoftStart_U11_S2 
R_U11_R11         U11_N231653 INT_VREF  1  
E_U11_ABM4         U11_N231653 0 VALUE { (1+ (V(DEF_LOGIC) *50m) +   
+ (V(P100)*5m))*  
+ V(U11_N222353)  }
V_U11_V1         U11_N221204 0 4.8
C_U11_C6         0 INT_VREF  1n  
G_U11_ABMII1         U11_N221204 SS VALUE { V(U11_N220353)*2.9u    }
C_U11_C7         0 SS  5p  
C_U11_C5         0 U11_N222353  1n  
X_U11_U9         SDWN_N U11_N226363 INV_BASIC_GEN PARAMS: VDD=1 VSS=0
+  VTHRESH=500E-3
V_U11_V2         U11_N234440 0 1.25
X_U11_U8         SS U11_N221204 d_dd PARAMS:
R_U11_R9         U11_N220353 U11_N220347  1  
E_U11_ABM1         U11_N220347 0 VALUE { IF(V(SDWN_N) < 0.5,0,1)    }
C_U11_C4         0 U11_N220353  1n  
R_U11_R10         U11_N222011 U11_N222353  1  
X_U1_S2    HS_ON 0 U1_N147247 U1_N147163 ErrorAmp_U1_S2 
X_U1_U5         SDWN_N U1_N147377 INV_BASIC_GEN PARAMS: VDD=1 VSS=0
+  VTHRESH=500E-3
R_U1_R12         U1_N147133 U1_N148771  1  
X_U1_U7         U1_N148765 U1_N148771 U1_SOFTSTART U1_N148405 MUX2_BASIC_GEN
+  PARAMS: VDD=1 VSS=0 VTHRESH=0.5
R_U1_R20         0 U1_N265822  50  
R_U1_R8         SWBY4 U1_N147079  844.4k  
X_U1_U2         U1_INNER_REF U1_INNER_FB U1_N264687 COMP_BASIC_GEN PARAMS:
+  VDD=1 VSS=0 VTHRESH=0.5
X_U1_U6         U1_INNER_REF U1_INNER_REF_CLAMP d_dd PARAMS:
X_U1_U10         FB U1_N194447 U1_N194443 COMP_BASIC_GEN PARAMS: VDD=1 VSS=0
+  VTHRESH=0.5
G_U1_ABMII3         U1_ISINK 0 VALUE { IF(V(CL_DET) > 0.5,125n,0)    }
X_U1_U8         PAUSE P100 U1_FBREF_SHORT OR2_BASIC_GEN PARAMS: VDD=1 VSS=0
+  VTHRESH=500E-3
R_U1_R15         U1_N148765 U1_N195543  1  
R_U1_R7         0 U1_N147163  6.67k  
X_U1_U3         FB U1_N147219 U1_N147271 COMP_BASIC_GEN PARAMS: VDD=1 VSS=0
+  VTHRESH=0.5
C_U1_C1         VOS U1_INNER_FB  20p  
E_U1_ABM3         U1_N147133 0 VALUE { IF(V(U1_VCLAMP) > 125n, 125n,  
+ IF (V(U1_VCLAMP) <-125n,  
+ -125n,V(U1_VCLAMP)))  }
V_U1_V1         U1_N147365 0 15m
R_U1_R1         U1_INNER_FB U1_N147079  1.337MEG  
X_U1_U11         U1_N264687 U1_N265822 PAUSE PWMIN MUX2_BASIC_GEN PARAMS: VDD=1
+  VSS=0 VTHRESH=0.5
C_U1_C9         0 U1_N148765  1n  
X_U1_U9         0 U1_INNER_REF d_dd PARAMS:
R_U1_R17         0 SWBY4  500k  
X_U1_S3    SDWN_N 0 U1_INNER_FB U1_INNER_REF ErrorAmp_U1_S3 
C_U1_C3         U1_N147163 U1_INNER_REF  10p  
E_U1_ABM4         U1_N273241 0 VALUE { LIMIT(((V(INT_VREF) -V(FB))*5.3u),  
+ 500n,-500n)   }
C_U1_C7         0 U1_VCLAMP  1n  
R_U1_R3         U1_N147079 SW  667k  
R_U1_R19         U1_N180936 U1_VCTRLM  1  
R_U1_R11         U1_INNER_REF 0  2.4G  
X_U1_S1    U1_FBREF_SHORT 0 U1_INNER_FB U1_ISINK ErrorAmp_U1_S1 
T_U1_T1         U1_N264687 0 U1_N265822 0 Z0=50 TD=300n  
E_U1_ABM8         U1_N195543 0 VALUE { IF(V(U1_N194443) > 0.5,V(U1_VCLAMP),  
+ 125n)   }
V_U1_V6         U1_N194447 0 0.744
E_U1_ABM6         U1_N180936 0 VALUE { IF(V(HS_ON) > 0.5,1.5u,0)    }
R_U1_R13         U1_VCLAMP U1_N273241  1  
G_U1_ABMII2         U1_N147365 U1_N147247 VALUE { V(U1_VCTRLM)    }
V_U1_V2         U1_N147219 0 0.76
X_U1_U1         U1_N147247 U1_N147365 d_dd PARAMS:
R_U1_R6         U1_INNER_REF U1_ISINK  750k  
E_U1_ABM10         U1_INNER_REF_CLAMP 0 VALUE { MIN(V(VIN),5)    }
G_U1_ABM3I1         0 U1_INNER_REF VALUE { IF((V(SDWN_N) < 0.5) |  
+ (V(CL_DET) > 0.5),0,  
+ V(U1_N148405))  }
X_U1_U4         U1_N147271 U1_N147377 N148783 U1_SOFTSTART srlatchrhp_basic_gen
+  PARAMS: VDD=1 VSS=0 VTHRESH=0.5
C_U1_C10         0 U1_VCTRLM  1n  
C_U1_C6         0 U1_N148771  1n  
X_U6         SDWN_N SDWN INV_BASIC_GEN PARAMS: VDD=1 VSS=0 VTHRESH=500E-3
R_R3         N73876 N73924  200k  
R_R6         N270436 VOUT  100m  
X_U7_U15         U7_INT_VREF U7_FB U7_N302167 COMP_BASIC_GEN PARAMS: VDD=1
+  VSS=0 VTHRESH=0.5
X_U7_U4         U7_N33832 U7_N33808 BUF_DELAY_BASIC_GEN PARAMS: VDD=1 VSS=0
+  VTHRESH=0.5 DELAY=6n
X_U7_S4    DRVL_PRE 0 SW U7_N33844 Driver_U7_S4 
V_U7_V2         SW U7_N37456 320m
X_U7_U3         U7_N33832 U7_N33808 DRVL_PRE AND2_BASIC_GEN PARAMS: VDD=1 VSS=0
+  VTHRESH=500E-3
X_U7_U17         DRVH_PRE U7_N307653 U7_N307164 OR2_BASIC_GEN PARAMS: VDD=1
+  VSS=0 VTHRESH=500E-3
X_U7_U16         U7_N302167 U7_N87279 U7_N307653 AND2_BASIC_GEN PARAMS: VDD=1
+  VSS=0 VTHRESH=500E-3
X_U7_S3    U7_N307164 0 U7_N33952 SW Driver_U7_S3 
X_U7_U6         U7_N37456 U7_N33952 d_d1special PARAMS:
R_U7_R1         0 U7_FB  1G  
X_U7_U1         U7_N33760 U7_N33764 BUF_DELAY_BASIC_GEN PARAMS: VDD=1 VSS=0
+  VTHRESH=0.5 DELAY=6n
V_U7_V1         U7_N827990 SW 320m
E_U7_ABM1         U7_N87279 0 VALUE { IF(TIME<STEADY*30u, 1, 0)    }
X_U7_U5         U7_N33844 U7_N827990 d_d1special PARAMS:
R_U7_R2         0 U7_INT_VREF  1G  
X_U7_H1    VIN U7_N33952 ISENSE_HS 0 Driver_U7_H1 
X_U7_U2         U7_N33760 U7_N33764 DRVH_PRE AND2_BASIC_GEN PARAMS: VDD=1 VSS=0
+  VTHRESH=500E-3
X_U7_U11         HS_ON U7_N33760 BUF_DELAY_BASIC_GEN PARAMS: VDD=1 VSS=0
+  VTHRESH=0.5 DELAY=8n
X_U7_H2    U7_N33844 0 0 ISENSE_LS Driver_U7_H2 
X_U7_U12         LS_ON U7_N33832 BUF_DELAY_BASIC_GEN PARAMS: VDD=1 VSS=0
+  VTHRESH=0.5 DELAY=8n
R_R18         0 DEF  1m  
X_U4         MIN_TOFF MIN_TOFF_N INV_BASIC_GEN PARAMS: VDD=1 VSS=0
+  VTHRESH=500E-3
I_U3_I1         U3_N11301 U3_N10915 DC 6.4u  
X_U3_U9         U3_N14024 U3_N10915 MIN_TOFF COMP_BASIC_GEN PARAMS: VDD=1 VSS=0
+  VTHRESH=0.5
X_U3_U10         U3_N10915 U3_N11301 d_dd PARAMS:
V_U3_V5         U3_N11301 0 1.2
X_U3_U11         DRVL_PRE U3_N12733 INV_BASIC_GEN PARAMS: VDD=1 VSS=0
+  VTHRESH=500E-3
C_U3_C2         0 U3_N10915  480f  
V_U3_V4         U3_N14024 0 667m
X_U3_S1    U3_N12733 0 U3_N10915 0 Mintoff_U3_S1 
L_L1         SW N270436  2.2u  
V_V1         MODE 0 0Vdc
X_U8_U12         U8_N96973 U8_HS_RST d_dd PARAMS:
X_U8_U798         CAPRIO SDWN U8_N96977 U8_LDRV_PBIASBAR U8_LS_RST
+  OR4_BASIC_GEN PARAMS: VDD=1 VSS=0 VTHRESH=500E-3
C_U8_C1         0 U8_HS_RST  10p  
X_U8_U18         U8_LS_SET U8_LS_RST U8_N97631 U8_LS_ON_PRE
+  srlatchrhp_basic_gen PARAMS: VDD=1 VSS=0 VTHRESH=0.5
X_U8_U20         LS_ON U8_LS_ON_N INV_BASIC_GEN PARAMS: VDD=1 VSS=0
+  VTHRESH=500E-3
X_U8_U26         U8_N96933 MIN_TON_N MIN_TON_ABS_N U8_N109134 AND3_BASIC_GEN
+  PARAMS: VDD=1 VSS=0 VTHRESH=500E-3
X_U8_U800         DRVL_PRE U8_N125193 INV_DELAY_BASIC_GEN PARAMS: VDD=1 VSS=0
+  VTHRESH=0.5 DELAY=40n
X_U8_U25         CLIMIT_LS SDWN U8_N97725 OR2_BASIC_GEN PARAMS: VDD=1 VSS=0
+  VTHRESH=500E-3
X_U8_U29         PWMIN U8_N129006 U8_N129154 U8_PWM AND3_BASIC_GEN PARAMS:
+  VDD=1 VSS=0 VTHRESH=500E-3
X_U8_U8         U8_HS_SET U8_HS_RST HS_ON N96925 srlatchrhp_basic_gen PARAMS:
+  VDD=1 VSS=0 VTHRESH=0.5
X_U8_U13         U8_HS_ON_N U8_N96933 U8_N97687 AND2_BASIC_GEN PARAMS: VDD=1
+  VSS=0 VTHRESH=500E-3
X_U8_U795         PWMIN SDWN U8_LDRV_PBIAS U8_LDRV_PBIASBAR
+  srlatchrhp_basic_gen PARAMS: VDD=1 VSS=0 VTHRESH=0.5
X_U8_U799         U8_N109134 SDWN U8_N96973 OR2_BASIC_GEN PARAMS: VDD=1 VSS=0
+  VTHRESH=500E-3
X_U8_U22         MIN_TOFF_N U8_PWM U8_N96977 AND2_BASIC_GEN PARAMS: VDD=1 VSS=0
+  VTHRESH=500E-3
X_U8_U28         U8_N125193 DRVL_PRE U8_N123495 AND2_BASIC_GEN PARAMS: VDD=1
+  VSS=0 VTHRESH=500E-3
X_U8_U7         U8_LS_ON_PRE SDWN_N U8_PWM U8_HS_SET AND3_BASIC_GEN PARAMS:
+  VDD=1 VSS=0 VTHRESH=500E-3
X_U8_U17         CAPRIO U8_N97707 INV_BASIC_GEN PARAMS: VDD=1 VSS=0
+  VTHRESH=500E-3
R_U8_R1         U8_N96973 U8_HS_RST  800  
X_U8_U15         U8_HS_ON_N U8_N97631 LS_ON AND2_BASIC_GEN PARAMS: VDD=1 VSS=0
+  VTHRESH=500E-3
X_U8_U23         CLIMIT_HS U8_N97725 CL_DET U8_N129006 srlatchrhp_basic_gen
+  PARAMS: VDD=1 VSS=0 VTHRESH=0.5
X_U8_U797         U8_N97687 U8_N97707 SDWN_N U8_LDRV_PBIAS U8_LS_SET
+  AND4_BASIC_GEN PARAMS: VDD=1 VSS=0 VTHRESH=500E-3
X_U8_U27         U8_N123495 U8_N97725 N127397 U8_N129154 srlatchrhp_basic_gen
+  PARAMS: VDD=1 VSS=0 VTHRESH=0.5
X_U8_U14         HS_ON U8_HS_ON_N INV_BASIC_GEN PARAMS: VDD=1 VSS=0
+  VTHRESH=500E-3
X_U8_U9         U8_PWM U8_N96933 INV_BASIC_GEN PARAMS: VDD=1 VSS=0
+  VTHRESH=500E-3
R_R8         0 GND  1m  
X_U20         VOS N250699 d_dd PARAMS:
X_U3         MIN_TON MIN_TON_N INV_BASIC_GEN PARAMS: VDD=1 VSS=0 VTHRESH=500E-3
R_U6_R4         U6_N26428 U6_N25747  1  
X_U6_U16         MODE_LOGIC U6_N16390 INV_BASIC_GEN PARAMS: VDD=1 VSS=0
+  VTHRESH=500E-3
X_U6_U18         DRVH_PRE DRVL_PRE U6_N17195 NOR2_BASIC_GEN PARAMS: VDD=1 VSS=0
+  VTHRESH=500E-3
X_U6_U14         U6_N15145 DRVH_PRE CAPRIO N20512 srlatchrhp_basic_gen PARAMS:
+  VDD=1 VSS=0 VTHRESH=0.5
R_U6_R3         U6_N17195 U6_N16592  1.44k  
X_U6_U19         VIN U6_N25747 U6_N26794 COMP_BASIC_GEN PARAMS: VDD=1 VSS=0
+  VTHRESH=0.5
C_U6_C5         0 U6_N25747  1n  
C_U6_C4         0 U6_N16592  1n  
X_U6_U13         DRVL_PRE U6_N14289 U6_N15145 AND2_BASIC_GEN PARAMS: VDD=1
+  VSS=0 VTHRESH=500E-3
V_U6_V1         U6_N23722 0 1.5m
E_U6_ABM1         U6_N26428 0 VALUE { (V(VOS) * 1.15)    }
X_U6_U20         U6_N16390 U6_N16592 U6_N26794 PAUSE AND3_BASIC_GEN PARAMS:
+  VDD=1 VSS=0 VTHRESH=500E-3
X_U6_U17         U6_N16592 U6_N17195 d_dd PARAMS:
X_U6_U12         U6_N23722 ISENSE_LS U6_N14289 COMP_BASIC_GEN PARAMS: VDD=1
+  VSS=0 VTHRESH=0.5
E_ABM1         N128939 0 VALUE { IF(V(VIN) > 6V, 6, V(VIN))    }
C_C2         0 N73924  1n  
R_R5         N128939 VIN_LDO  1  
R_R4         0 EN  160MEG  
X_U4_U3         FSW_LOGIC U4_N19391 INV_BASIC_GEN PARAMS: VDD=1 VSS=0
+  VTHRESH=500E-3
C_U4_C2         0 MODE_LOGIC  1n  
R_U4_R4         U4_N17314 FSW_LOGIC  1  
E_U4_ABM1         U4_N15535 0 VALUE { IF(V(EN) > 0.895,1,0)    }
R_U4_R2         U4_N15867 MODE_LOGIC  1  
C_U4_C4         0 FSW_LOGIC  1n  
E_U4_ABM3         U4_N16997 0 VALUE { IF(V(DEF) > 0.895,1,0)    }
X_U4_S2    U4_N19171 0 DEF 0 LogicTrans_U4_S2 
X_U4_S1    U4_N18546 0 EN 0 LogicTrans_U4_S1 
C_U4_C1         0 EN_LOGIC  1n  
E_U4_ABM4         U4_N17314 0 VALUE { IF(V(FSW) > 0.895,1,0)    }
X_U4_S3    U4_N19391 0 FSW 0 LogicTrans_U4_S3 
E_U4_ABM2         U4_N15867 0 VALUE { IF(V(MODE) > 0.8,1,0)    }
R_U4_R1         U4_N15535 EN_LOGIC  1  
C_U4_C3         0 DEF_LOGIC  1n  
X_U4_U2         DEF_LOGIC U4_N19171 INV_BASIC_GEN PARAMS: VDD=1 VSS=0
+  VTHRESH=500E-3
R_U4_R3         U4_N16997 DEF_LOGIC  1  
X_U4_U1         EN_LOGIC U4_N18546 INV_BASIC_GEN PARAMS: VDD=1 VSS=0
+  VTHRESH=500E-3
R_R16         0 PAD  1m  
C_C3         0 VIN_LDO  1n  
V_V2         N250699 0 7.4
E_GAIN1         N73876 0 VALUE {1 * V(HS_ON)}
X_U9         MIN_TON_ABS MIN_TON_ABS_N INV_BASIC_GEN PARAMS: VDD=1 VSS=0
+  VTHRESH=500E-3
C_C4         FB VOS  25p  
R_R11         VIN VIN  1m  
E_U5_ABM2         U5_N525541 0 VALUE { (V(U5_N06443) + 2.9)    }
R_U5_R3         U5_N525541 U5_N03743  1  
X_U5_U1         U5_N11335 ISENSE_LS U5_N25875 COMP_BASIC_GEN PARAMS: VDD=1
+  VSS=0 VTHRESH=0.5
V_U5_V5         U5_HSLIMIT_THRESH 0 1.8
X_U5_U3         ISENSE_HS U5_HSLIMIT_THRESH U5_N36255 COMP_BASIC_GEN PARAMS:
+  VDD=1 VSS=0 VTHRESH=0.5
R_U5_R9         U5_N38308 U5_N38320  4  
X_U5_U2         DRVL_PRE U5_N25875 U5_N38308 AND2_BASIC_GEN PARAMS: VDD=1 VSS=0
+  VTHRESH=500E-3
X_U5_U9         UVLO_OUT EN_LOGIC U5_N12138 SDWN_N AND3_BASIC_GEN PARAMS: VDD=1
+  VSS=0 VTHRESH=500E-3
X_U5_U14         U5_N38320 U5_N38308 d_dd PARAMS:
X_U5_U15         U5_N38320 CLIMIT_LS BUF_BASIC_GEN PARAMS: VDD=1 VSS=0
+  VTHRESH=0.5
X_U5_U12         U5_N35681 U5_N35669 d_dd PARAMS:
E_U5_ABM1         U5_N06376 0 VALUE { (V(UVLO_OUT) * -200m)    }
C_U5_C3         0 U5_N03743  1n  
V_U5_V3         U5_N12138 0  
+PULSE 0 1 1u 10n 10n 1000 2000
V_U5_V4         U5_N11335 0 1.2
X_U5_U4         U5_N36255 DRVH_PRE U5_N35669 AND2_BASIC_GEN PARAMS: VDD=1 VSS=0
+  VTHRESH=500E-3
R_U5_R2         U5_N06376 U5_N06443  1  
R_U5_R8         U5_N35669 U5_N35681  25  
X_U5_U5         VIN U5_N03743 UVLO_OUT COMP_BASIC_GEN PARAMS: VDD=1 VSS=0
+  VTHRESH=0.5
X_U5_U16         PAUSE DRVL_PRE U5_CL_MASK N47303 srlatchrhp_basic_gen PARAMS:
+  VDD=1 VSS=0 VTHRESH=0.5
C_U5_C2         0 U5_N06443  1n  
C_U5_C8         0 U5_N35681  1n  
X_U5_U13         U5_N35681 CLIMIT_HS BUF_BASIC_GEN PARAMS: VDD=1 VSS=0
+  VTHRESH=0.5
C_U5_C9         0 U5_N38320  1n  
X_U26         N73924 P100 BUF_BASIC_GEN PARAMS: VDD=1 VSS=0 VTHRESH=0.5
X_U2_U9         U2_N14352 U2_N10820 MIN_TON COMP_BASIC_GEN PARAMS: VDD=1 VSS=0
+  VTHRESH=0.5
X_U2_U12         DRVH_PRE U2_N19880 INV_BASIC_GEN PARAMS: VDD=1 VSS=0
+  VTHRESH=500E-3
R_U2_R1         U2_N21998 VIN  630k  
X_U2_S2    U2_N19880 0 U2_N19824 0 Minton_U2_S2 
I_U2_I1         U2_N19572 U2_N19824 DC 4.7m  
R_U2_R2         SWBY4 U2_N14352  1.3MEG  
X_U2_U13         U2_N19580 U2_N19824 MIN_TON_ABS COMP_BASIC_GEN PARAMS: VDD=1
+  VSS=0 VTHRESH=0.5
X_U2_S3    FSW 0 U2_N21998 U2_N10820 Minton_U2_S3 
X_U2_U10         U2_N19824 U2_N19572 d_dd PARAMS:
C_U2_C4         0 U2_N19824  480p  
C_U2_C2         0 U2_N10820  2.20p  
C_U2_C3         0 U2_N14352  5p  
V_U2_V5         U2_N19572 0 1.2
X_U2_U11         DRVH_PRE U2_N12733 INV_BASIC_GEN PARAMS: VDD=1 VSS=0
+  VTHRESH=500E-3
V_U2_V4         U2_N19580 0 667m
X_U2_S1    U2_N12733 0 U2_N10820 0 Minton_U2_S1 
.ENDS LMZ21701_TRANS
*$
.subckt PG_SGND_U10_S1 1 2 3 4  
S_U10_S1         3 4 1 2 _U10_S1
RS_U10_S1         1 2 1G
.MODEL         _U10_S1 VSWITCH Roff=30e6 Ron=150 Voff=0.2V Von=0.8
.ends PG_SGND_U10_S1
*$
.subckt SoftStart_U11_S1 1 2 3 4  
S_U11_S1         3 4 1 2 _U11_S1
RS_U11_S1         1 2 1G
.MODEL         _U11_S1 VSWITCH Roff=1e9 Ron=100 Voff=0.2 Von=0.8
.ends SoftStart_U11_S1
*$
.subckt SoftStart_U11_S2 1 2 3 4  
S_U11_S2         3 4 1 2 _U11_S2
RS_U11_S2         1 2 1G
.MODEL         _U11_S2 VSWITCH Roff=1e9 Ron=1.0 Voff=0.0V Von=1.0V
.ends SoftStart_U11_S2
*$
.subckt ErrorAmp_U1_S2 1 2 3 4  
S_U1_S2         3 4 1 2 _U1_S2
RS_U1_S2         1 2 1G
.MODEL         _U1_S2 VSWITCH Roff=100e6 Ron=1m Voff=0.4V Von=0.8V
.ends ErrorAmp_U1_S2
*$
.subckt ErrorAmp_U1_S3 1 2 3 4  
S_U1_S3         3 4 1 2 _U1_S3
RS_U1_S3         1 2 1G
.MODEL         _U1_S3 VSWITCH Roff=1 Ron=10G Voff=0.2V Von=0.9V
.ends ErrorAmp_U1_S3
*$
.subckt ErrorAmp_U1_S1 1 2 3 4  
S_U1_S1         3 4 1 2 _U1_S1
RS_U1_S1         1 2 1G
.MODEL         _U1_S1 VSWITCH Roff=1000e6 Ron=1 Voff=0.4V Von=0.8V
.ends ErrorAmp_U1_S1
*$
.subckt Driver_U7_S4 1 2 3 4  
S_U7_S4         3 4 1 2 _U7_S4
RS_U7_S4         1 2 1G
.MODEL         _U7_S4 VSWITCH Roff=10e6 Ron=50m Voff=0.2 Von=0.8
.ends Driver_U7_S4
*$
.subckt Driver_U7_S3 1 2 3 4  
S_U7_S3         3 4 1 2 _U7_S3
RS_U7_S3         1 2 1G
.MODEL         _U7_S3 VSWITCH Roff=10e6 Ron=90m Voff=0.2 Von=0.8
.ends Driver_U7_S3
*$
.subckt Driver_U7_H1 1 2 3 4  
H_U7_H1         3 4 VH_U7_H1 1
VH_U7_H1         1 2 0V
.ends Driver_U7_H1
*$
.subckt Driver_U7_H2 1 2 3 4  
H_U7_H2         3 4 VH_U7_H2 1
VH_U7_H2         1 2 0V
.ends Driver_U7_H2
*$
.subckt Mintoff_U3_S1 1 2 3 4  
S_U3_S1         3 4 1 2 _U3_S1
RS_U3_S1         1 2 1G
.MODEL         _U3_S1 VSWITCH Roff=10e6 Ron=1.0 Voff=0.2 Von=0.8
.ends Mintoff_U3_S1
*$
.subckt LogicTrans_U4_S2 1 2 3 4  
S_U4_S2         3 4 1 2 _U4_S2
RS_U4_S2         1 2 1G
.MODEL         _U4_S2 VSWITCH Roff=100e6 Ron=400k Voff=0.2 Von=0.8
.ends LogicTrans_U4_S2
*$
.subckt LogicTrans_U4_S1 1 2 3 4  
S_U4_S1         3 4 1 2 _U4_S1
RS_U4_S1         1 2 1G
.MODEL         _U4_S1 VSWITCH Roff=100e6 Ron=400k Voff=0.2 Von=0.8
.ends LogicTrans_U4_S1
*$
.subckt LogicTrans_U4_S3 1 2 3 4  
S_U4_S3         3 4 1 2 _U4_S3
RS_U4_S3         1 2 1G
.MODEL         _U4_S3 VSWITCH Roff=100e6 Ron=400k Voff=0.2 Von=0.8
.ends LogicTrans_U4_S3
*$
.subckt Minton_U2_S2 1 2 3 4  
S_U2_S2         3 4 1 2 _U2_S2
RS_U2_S2         1 2 1G
.MODEL         _U2_S2 VSWITCH Roff=10e6 Ron=1.0 Voff=0.2 Von=0.8
.ends Minton_U2_S2
*$
.subckt Minton_U2_S3 1 2 3 4  
S_U2_S3         3 4 1 2 _U2_S3
RS_U2_S3         1 2 1G
.MODEL         _U2_S3 VSWITCH Roff=1 Ron=630k Voff=0.2 Von=0.8
.ends Minton_U2_S3
*$
.subckt Minton_U2_S1 1 2 3 4  
S_U2_S1         3 4 1 2 _U2_S1
RS_U2_S1         1 2 1G
.MODEL         _U2_S1 VSWITCH Roff=100e6 Ron=1 Voff=0.2 Von=0.8
.ends Minton_U2_S1
*$
.subckt d_d1 1 2
d1 1 2 dd1
.model dd1 d
+ is=1e-015
+ tt=1e-011
+ rs=0.05
+ n=0.001
.ends d_d1
*$
.subckt srlatchrhp_basic_gen s r q qb params: vdd=1 vss=0 vthresh=0.5 
gq 0 qint value = {if(v(r) > {vthresh},-5,if(v(s)>{vthresh},5, 0))}
cqint qint 0 1n
rqint qint 0 1000meg
d_d10 qint my5 d_d1
v1 my5 0 {vdd}
d_d11 myvss qint d_d1
v2 myvss 0 {vss} 
eq qqq 0 qint 0 1
x3 qqq qqqd1 buf_basic_gen params: vdd={vdd} vss={vss} vthresh={vthresh}
rqq qqqd1 q 1
eqb qbr 0 value = {if( v(q) > {vthresh}, {vss},{vdd})}
rqb qbr qb 1 
cdummy1 q 0 1n 
cdummy2 qb 0 1n
.ic v(qint) {vss}
.model d_d1 d
+ is=1e-015
+ tt=1e-011
+ rs=0.005
+ n=0.01
.ends srlatchrhp_basic_gen
*$
.subckt d_d1special 1 2
d1 1 2 dd1spec
.model dd1spec d
+ is=1e-015
+ tt=1e-011
+ rs=0.8
+ n=0.1
.ends d_d1special
*$
.SUBCKT COMP_BASIC_GEN INP INM Y PARAMS: VDD=1 VSS=0 VTHRESH=0.5	
E_ABM Yint 0 VALUE {IF (V(INP) > 
+ V(INM), {VDD},{VSS})}
R1 Yint Y 1
C1 Y 0 1n
.ENDS COMP_BASIC_GEN
*$
.SUBCKT COMPHYS_BASIC_GEN INP INM HYS OUT PARAMS: VDD=1 VSS=0 VTHRESH=0.5	
EIN INP1 INM1 INP INM 1 
EHYS INP1 INP2 VALUE { IF( V(1) > {VTHRESH},-V(HYS),0) }
EOUT OUT 0 VALUE { IF( V(INP2)>V(INM1), {VDD} ,{VSS}) }
R1 OUT 1 1
C1 1 0 5n
RINP1 INP1 0 1K
.ENDS COMPHYS_BASIC_GEN
*$
.SUBCKT COMPHYS2_BASIC_GEN INP INM HYS OUT PARAMS: VDD=1 VSS=0 VTHRESH=0.5	
+ T=10
EIN INP1 INM1 INP INM 1 
EHYS INM2 INM1 VALUE { IF( V(1) > {VTHRESH},-V(HYS)/2,V(HYS)/2) }
EOUT OUT 0 VALUE { IF( V(INP1)>V(INM2), {VDD} ,{VSS}) }
R1 OUT 1 1
C1 1 0 {T*1e-9}
RINP1 INP1 0 10K
RINM2 INM2 0 10K
.ENDS COMPHYS2_BASIC_GEN
*$
.SUBCKT ONE_SHOT IN OUT
+ PARAMs:  T=100
S_S1         MEAS 0 RESET2 0 S1
E_ABM1         CH 0 VALUE { if( V(IN)>0.5 | V(OUT)>0.5,1,0)    }
R_R2         RESET2 RESET  0.1  
E_ABM3         OUT 0 VALUE { if( V(MEAS)<0.5 & V(CH)>0.5,1,0)    }
R_R1         MEAS CH  {T} 
C_C2         0 RESET2  1.4427n  
C_C1         0 MEAS  1.4427n  
E_ABM2         RESET 0 VALUE { if(V(CH)<0.5,1,0)    }
.MODEL         S1 VSWITCH Roff=1e9 Ron=1.0 Voff=0.25V Von=0.75V
.ENDS ONE_SHOT
*$
.SUBCKT AND2_BASIC_GEN A B Y PARAMS: VDD=1 VSS=0 VTHRESH=0.5 
E_ABMGATE    YINT 0 VALUE {{IF(V(A) > {VTHRESH}  &  
+ V(B) > {VTHRESH},{VDD},{VSS})}}
RINT YINT Y 1
CINT Y 0 1n
.ENDS AND2_BASIC_GEN
*$
.SUBCKT AND3_BASIC_GEN A B C Y PARAMS: VDD=1 VSS=0 VTHRESH=0.5 
E_ABMGATE    YINT 0 VALUE {{IF(V(A) > {VTHRESH}  &  
+ V(B) > {VTHRESH} &
+ V(C) > {VTHRESH},{VDD},{VSS})}}
RINT YINT Y 1
CINT Y 0 1n
.ENDS AND3_BASIC_GEN
*$
.SUBCKT AND4_BASIC_GEN A B C D Y PARAMS: VDD=1 VSS=0 VTHRESH=0.5 
E_ABMGATE    YINT 0 VALUE {{IF(V(A) > {VTHRESH}  &  
+ V(B) > {VTHRESH} &
+ V(C) > {VTHRESH} &
+ V(D) > {VTHRESH},{VDD},{VSS})}}
RINT YINT Y 1
CINT Y 0 1n
.ENDS AND4_BASIC_GEN
*$
.SUBCKT NAND2_BASIC_GEN A B Y PARAMS: VDD=1 VSS=0 VTHRESH=0.5 
E_ABMGATE    YINT 0 VALUE {{IF(V(A) > {VTHRESH}  &  
+ V(B) > {VTHRESH},{VSS},{VDD})}}
RINT YINT Y 1
CINT Y 0 1n
.ENDS NAND2_BASIC_GEN
*$
.SUBCKT NAND3_BASIC_GEN A B C Y PARAMS: VDD=1 VSS=0 VTHRESH=0.5 
E_ABMGATE    YINT 0 VALUE {{IF(V(A) > {VTHRESH}  &  
+ V(B) > {VTHRESH} &
+ V(C) > {VTHRESH},{VSS},{VDD})}}
RINT YINT Y 1
CINT Y 0 1n
.ENDS NAND3_BASIC_GEN
*$
.SUBCKT NAND4_BASIC_GEN A B C D Y PARAMS: VDD=1 VSS=0 VTHRESH=0.5 
E_ABMGATE    YINT 0 VALUE {{IF(V(A) > {VTHRESH}  &  
+ V(B) > {VTHRESH} &
+ V(C) > {VTHRESH} &
+ V(D) > {VTHRESH},{VSS},{VDD})}}
RINT YINT Y 1
CINT Y 0 1n
.ENDS NAND4_BASIC_GEN
*$
.SUBCKT OR2_BASIC_GEN A B Y PARAMS: VDD=1 VSS=0 VTHRESH=0.5 
E_ABMGATE    YINT 0 VALUE {{IF(V(A) > {VTHRESH}  |  
+ V(B) > {VTHRESH},{VDD},{VSS})}}
RINT YINT Y 1
CINT Y 0 1n
.ENDS OR2_BASIC_GEN
*$
.SUBCKT OR3_BASIC_GEN A B C Y PARAMS: VDD=1 VSS=0 VTHRESH=0.5 
E_ABMGATE    YINT 0 VALUE {{IF(V(A) > {VTHRESH}  |  
+ V(B) > {VTHRESH} |
+ V(C) > {VTHRESH},{VDD},{VSS})}}
RINT YINT Y 1
CINT Y 0 1n
.ENDS OR3_BASIC_GEN
*$
.SUBCKT OR4_BASIC_GEN A B C D Y PARAMS: VDD=1 VSS=0 VTHRESH=0.5 
E_ABMGATE    YINT 0 VALUE {{IF(V(A) > {VTHRESH}  |  
+ V(B) > {VTHRESH} |
+ V(C) > {VTHRESH} |
+ V(D) > {VTHRESH},{VDD},{VSS})}}
RINT YINT Y 1
CINT Y 0 1n
.ENDS OR4_BASIC_GEN
*$
.SUBCKT NOR2_BASIC_GEN A B Y PARAMS: VDD=1 VSS=0 VTHRESH=0.5 
E_ABMGATE    YINT 0 VALUE {{IF(V(A) > {VTHRESH}  |  
+ V(B) > {VTHRESH},{VSS},{VDD})}}
RINT YINT Y 1
CINT Y 0 1n
.ENDS NOR2_BASIC_GEN
*$
.SUBCKT NOR3_BASIC_GEN A B C Y PARAMS: VDD=1 VSS=0 VTHRESH=0.5 
E_ABMGATE    YINT 0 VALUE {{IF(V(A) > {VTHRESH}  |  
+ V(B) > {VTHRESH} |
+ V(C) > {VTHRESH},{VSS},{VDD})}}
RINT YINT Y 1
CINT Y 0 1n
.ENDS NOR3_BASIC_GEN
*$
.SUBCKT NOR4_BASIC_GEN A B C D Y PARAMS: VDD=1 VSS=0 VTHRESH=0.5 
E_ABMGATE    YINT 0 VALUE {{IF(V(A) > {VTHRESH}  |  
+ V(B) > {VTHRESH} |
+ V(C) > {VTHRESH} |
+ V(D) > {VTHRESH},{VSS},{VDD})}}
RINT YINT Y 1
CINT Y 0 1n
.ENDS NOR4_BASIC_GEN
*$
.SUBCKT NOR5_BASIC_GEN A B C D E Y PARAMS: VDD=1 VSS=0 VTHRESH=0.5 
E_ABMGATE YINT 0 VALUE {{IF(V(A) > {VTHRESH}  |  
+ V(B) > {VTHRESH} |
+ V(C) > {VTHRESH} |
+ V(D) > {VTHRESH} |
+ V(E) > {VTHRESH},{VSS},{VDD})}}
RINT YINT Y 1
CINT Y 0 1n
.ENDS NOR5_BASIC_GEN
*$
.SUBCKT NOR6_BASIC_GEN A B C D E F Y PARAMS: VDD=1 VSS=0 VTHRESH=0.5 
E_ABMGATE YINT 0 VALUE {{IF(V(A) > {VTHRESH}  |  
+ V(B) > {VTHRESH} |
+ V(C) > {VTHRESH} |
+ V(D) > {VTHRESH} |
+ V(E) > {VTHRESH} |
+ V(F) > {VTHRESH},{VSS},{VDD})}}
RINT YINT Y 1
CINT Y 0 1n
.ENDS NOR6_BASIC_GEN
*$
.SUBCKT INV_BASIC_GEN A  Y PARAMS: VDD=1 VSS=0 VTHRESH=0.5 
E_ABMGATE    YINT 0 VALUE {{IF(V(A) > {VTHRESH} , 
+ {VSS},{VDD})}}
RINT YINT Y 1
CINT Y 0 1n
.ENDS INV_BASIC_GEN
*$
.SUBCKT XOR2_BASIC_GEN A B Y PARAMS: VDD=1 VSS=0 VTHRESH=0.5 
E_ABMGATE  YINT 0 VALUE {{IF(V(A) > {VTHRESH}  ^  
+ V(B) > {VTHRESH},{VDD},{VSS})}}
RINT YINT Y 1
CINT Y 0 1n
.ENDS XOR2_BASIC_GEN
*$
.SUBCKT XNOR2_BASIC_GEN A B Y PARAMS: VDD=1 VSS=0 VTHRESH=0.5 
E_ABMGATE  YINT 0 VALUE {{IF(V(A) > {VTHRESH}  ^  
+ V(B) > {VTHRESH},{VSS},{VDD})}}
RINT YINT Y 1
CINT Y 0 1n
.ENDS XNOR2_BASIC_GEN
*$
.SUBCKT MUX2_BASIC_GEN A B S Y PARAMS: VDD=1 VSS=0 VTHRESH=0.5 
E_ABMGATE  YINT 0 VALUE {{IF(V(S) > {VTHRESH},  
+ V(B),V(A))}}
RINT YINT Y 1
CINT Y 0 1n
.ENDS MUX2_BASIC_GEN
*$
.SUBCKT INV_DELAY_BASIC_GEN A  Y PARAMS: VDD=1 VSS=0 VTHRESH=0.5 DELAY = 10n 
E_ABMGATE1    YINT1 0 VALUE {{IF(V(A) > {VTHRESH} , 
+ {VDD},{VSS})}}
RINT YINT1 YINT2 1
CINT YINT2 0 {DELAY*1.3}
E_ABMGATE2    YINT3 0 VALUE {{IF(V(YINT2) > {VTHRESH} , 
+ {VSS},{VDD})}}
RINT2 YINT3 Y 1
CINT2 Y 0 1n
.ENDS INV_DELAY_BASIC_GEN
*$
.SUBCKT BUF_DELAY_BASIC_GEN A  Y PARAMS: VDD=1 VSS=0 VTHRESH=0.5 DELAY = 10n 
E_ABMGATE1    YINT1 0 VALUE {{IF(V(A) > {VTHRESH} , 
+ {VDD},{VSS})}}
RINT YINT1 YINT2 1
CINT YINT2 0 {DELAY*1.3}
E_ABMGATE2    YINT3 0 VALUE {{IF(V(YINT2) > {VTHRESH} , 
+ {VDD},{VSS})}}
RINT2 YINT3 Y 1
CINT2 Y 0 1n
.ENDS BUF_DELAY_BASIC_GEN
*$
.SUBCKT BUF_BASIC_GEN A  Y PARAMS: VDD=1 VSS=0 VTHRESH=0.5 
E_ABMGATE    YINT 0 VALUE {{IF(V(A) > {VTHRESH} , 
+ {VDD},{VSS})}}
RINT YINT Y 1
CINT Y 0 1n
.ENDS BUF_BASIC_GEN
*$
.SUBCKT SRLATCHSHP_BASIC_GEN S R Q QB PARAMS: VDD=1 VSS=0 VTHRESH=0.5 
GQ 0 Qint VALUE = {IF(V(S) > {VTHRESH},5,IF(V(R)>{VTHRESH},-5, 0))}
CQint Qint 0 1n
RQint Qint 0 1000MEG
D_D10 Qint MY5 D_D1
V1 MY5 0 {VDD}
D_D11 MYVSS Qint D_D1
V2 MYVSS 0 {VSS} 
EQ Qqq 0 Qint 0 1
X3 Qqq Qqqd1 BUF_BASIC_GEN PARAMS: VDD={VDD} VSS={VSS} VTHRESH={VTHRESH}
RQq Qqqd1 Q 1
EQb Qbr 0 VALUE = {IF( V(Q) > {VTHRESH}, {VSS},{VDD})}
RQb Qbr QB 1 
Cdummy1 Q 0 1n 
Cdummy2 QB 0 1n 
.IC V(Qint) {VSS}
.MODEL D_D1 D( IS=1e-15 TT=10p Rs=0.05 N=.1 )
.ENDS SRLATCHSHP_BASIC_GEN
*$
.SUBCKT SBRBLATCHRHP_BASIC_GEN SB RB Q QB PARAMS: VDD=1 VSS=0 VTHRESH=0.5 
GQ 0 Qint VALUE = {IF(V(RB) < {VTHRESH},-5,IF(V(SB) < {VTHRESH},5, 0))}
CQint Qint 0 1n
RQint Qint 0 1000MEG
D_D10 Qint MY5 D_D1
V1 MY5 0 {VDD}
D_D11 MYVSS Qint D_D1
V2 MYVSS 0 {VSS} 
EQ Qqq 0 Qint 0 1
X3 Qqq Qqqd1 BUF_BASIC_GEN PARAMS: VDD={VDD} VSS={VSS} VTHRESH={VTHRESH}
RQq Qqqd1 Q 1
EQb Qbr 0 VALUE = {IF( V(Q) > {VTHRESH}, {VSS},{VDD})}
RQb Qbr QB 1 
.IC V(Qint) {VSS}
.MODEL D_D1 D( IS=1e-15 TT=10p Rs=0.05 N=.1 )
.ENDS SBRBLATCHRHP_BASIC_GEN
*$
.SUBCKT SBRBLATCHSHP_BASIC_GEN SB RB Q QB PARAMS: VDD=1 VSS=0 VTHRESH=0.5 
GQ 0 Qint VALUE = {IF(V(SB) < {VTHRESH},5,IF(V(RB) < {VTHRESH},-5, 0))}
CQint Qint 0 1n
RQint Qint 0 1000MEG
D_D10 Qint MY5 D_D1
V1 MY5 0 {VDD}
D_D11 MYVSS Qint D_D1
V2 MYVSS 0 {VSS} 
EQ Qqq 0 Qint 0 1
X3 Qqq Qqqd1 BUF_BASIC_GEN PARAMS: VDD={VDD} VSS={VSS} VTHRESH={VTHRESH}
RQq Qqqd1 Q 1
EQb Qbr 0 VALUE = {IF( V(Q) > {VTHRESH}, {VSS},{VDD})}
RQb Qbr QB 1 
.IC V(Qint) {VSS}
.MODEL D_D1 D( IS=1e-15 TT=10p Rs=0.05 N=.1 )
.ENDS SBRBLATCHSHP_BASIC_GEN
*$
.SUBCKT DFFSBRB_SHPBASIC_GEN Q QB CLK D RB SB PARAMS: VDD=1 VSS=0 VTHRESH=0.5 
X1 CLK CLKdel INV_DELAY_BASIC_GEN PARAMS: VDD={VDD} VSS={VSS} VTHRESH={VTHRESH} DELAY = 15n
X2 CLK CLKdel CLKint AND2_BASIC_GEN PARAMS: VDD={VDD} VSS={VSS} VTHRESH={VTHRESH}
GQ 0 Qint VALUE = {IF(V(SB) < {VTHRESH},5,IF(V(RB)<{VTHRESH},-5, IF(V(CLKint)> {VTHRESH}, 
+ IF(V(D)> {VTHRESH},5,-5),0)))}
CQint Qint 0 1n
RQint Qint 0 1000MEG
D_D10 Qint MY5 D_D1
V1 MY5 0 {VDD}
D_D11 MYVSS Qint D_D1
V2 MYVSS 0 {VSS} 
EQ Qqq 0 Qint 0 1
X3 Qqq Qqqd1 BUF_DELAY_BASIC_GEN PARAMS: VDD={VDD} VSS={VSS} VTHRESH={VTHRESH} DELAY = 20n
RQq Qqqd1 Q 1
EQb Qbr 0 VALUE = {IF( V(Q) > {VTHRESH}, {VSS},{VDD})}
RQb Qbr Qb 1 
Cdummy1 Q 0 1nF 
Cdummy2 QB 0 1nF 
.IC V(Qint) {VSS}
.MODEL D_D1 D( IS=1e-15 TT=10p Rs=0.05 N=.1 )
.ENDS DFFSBRB_SHPBASIC_GEN
*$
.SUBCKT DFFSR_SHPBASIC_GEN Q QB CLK D R S PARAMS: VDD=1 VSS=0 VTHRESH=0.5 
X1 CLK CLKdel INV_DELAY_BASIC_GEN PARAMS: VDD={VDD} VSS={VSS} VTHRESH={VTHRESH} DELAY = 15n
X2 CLK CLKdel CLKint AND2_BASIC_GEN PARAMS: VDD={VDD} VSS={VSS} VTHRESH={VTHRESH} 
GQ 0 Qint VALUE = {IF(V(S) > {VTHRESH},5,IF(V(R) > {VTHRESH},-5, IF(V(CLKint)> {VTHRESH}, 
+ IF(V(D)> {VTHRESH},5,-5),0)))}
CQint Qint 0 1n
RQint Qint 0 1000MEG
D_D10 Qint MY5 D_D1
V1 MY5 0 {VDD}
D_D11 MYVSS Qint D_D1
V2 MYVSS 0 {VSS} 
EQ Qqq 0 Qint 0 1
X3 Qqq Qqqd1 BUF_DELAY_BASIC_GEN PARAMS: VDD=1 VSS=0 VTHRESH=0.5 DELAY = 20n
RQq Qqqd1 Q 1
EQb Qbr 0 VALUE = {IF( V(Q) > {VTHRESH}, {VSS},{VDD})}
RQb Qbr Qb 1 
Cdummy1 Q 0 1nF 
Cdummy2 QB 0 1nF 
.IC V(Qint) {VSS}
.MODEL D_D1 D( IS=1e-15 TT=10p Rs=0.05 N=.1 )
.ENDS DFFSR_SHPBASIC_GEN
*$
.SUBCKT DFFSBRB_RHPBASIC_GEN Q QB CLK D RB SB PARAMS: VDD=1 VSS=0 VTHRESH=0.5 
X1 CLK CLKdel INV_DELAY_BASIC_GEN PARAMS: VDD={VDD} VSS={VSS} VTHRESH={VTHRESH} DELAY = 15n
X2 CLK CLKdel CLKint AND2_BASIC_GEN PARAMS: VDD={VDD} VSS={VSS} VTHRESH={VTHRESH} 
GQ 0 Qint VALUE = {IF(V(RB) < {VTHRESH},-5,IF(V(SB)< {VTHRESH},5, IF(V(CLKint)> {VTHRESH}, 
+ IF(V(D)> {VTHRESH},5,-5),0)))}
CQint Qint 0 1n
RQint Qint 0 1000MEG
D_D10 Qint MY5 D_D1
V1 MY5 0 5
D_D11 0 Qint D_D1 
EQ Qqq 0 Qint 0 1
X3 Qqq Qqqd1 BUF_DELAY_BASIC_GEN PARAMS: VDD={VDD} VSS={VSS} VTHRESH={VTHRESH} DELAY = 20n
RQq Qqqd1 Q 1
EQb Qbr 0 VALUE = {IF( V(Q) > {VTHRESH}, {VSS},{VDD})}
RQb Qbr Qb 1 
Cdummy1 Q 0 1nF 
Cdummy2 QB 0 1nF 
.IC V(Qint) {VSS}
.MODEL D_D1 D( IS=1e-15 TT=10p Rs=0.05 N=.1 )
.ENDS DFFSBRB_RHPBASIC_GEN
*$
.SUBCKT DFFSR_RHPBASIC_GEN Q QB CLK D R S PARAMS: VDD=1 VSS=0 VTHRESH=0.5 
X1 CLK CLKdel INV_DELAY_BASIC_GEN PARAMS: VDD={VDD} VSS={VSS} VTHRESH={VTHRESH} DELAY = 15n
X2 CLK CLKdel CLKint AND2_BASIC_GEN PARAMS: VDD={VDD} VSS={VSS} VTHRESH={VTHRESH}  
GQ 0 Qint VALUE = {IF(V(R) > {VTHRESH},-5,IF(V(S) > {VTHRESH},5, IF(V(CLKint)> {VTHRESH}, 
+ IF(V(D)> {VTHRESH},5,-5),0)))}
CQint Qint 0 1n
RQint Qint 0 1000MEG
D_D10 Qint MY5 D_D1
V1 MY5 0 {VDD}
D_D11 MYVSS Qint D_D1
V2 MYVSS 0 {VSS} 
EQ Qqq 0 Qint 0 1