*$
* LMZM33604
*****************************************************************************
* (C) Copyright 2018 Texas Instruments Incorporated. All rights reserved.                                            
*****************************************************************************
** This model is designed as an aid for customers of Texas Instruments.
** TI and its licensors and suppliers make no warranties, either expressed
** or implied, with respect to this model, including the warranties of 
** merchantability or fitness for a particular purpose.  The model is
** provided solely on an "as is" basis.  The entire risk as to its quality
** and performance is with the customer
*****************************************************************************
*
* This model is subject to change without notice. Texas Instruments
* Incorporated is not responsible for updating this model.
*
*****************************************************************************
*
** Released by: WEBENCH Design Center, Texas Instruments Inc.
* Part: LMZM33604
* Date: 05OCT2018
* Model Type: TRANSIENT 
* Simulator: PSPICE
* Simulator Version: 16.2.0.p001
* EVM Order Number: LMZM33604EVM
* EVM Users Guide: SNVU594-June 2018
* Datasheet:SNVSB57-SEPTEMBER 13 2018
* Topologies Supported: BUCK
* Model Version: Final 1.00
*
*****************************************************************************
*
* Updates:
*
* Final 1.00
* Release to Web.
*
*****************************************************************************
*
* Model Usage Notes:
*
* 1. The following features have been modeled
*      a. Frequency foldback during soft-start
*      b. Current foldback
*      c. Current limit, Hiccup
*      d. PGOOD functionality
*      e. MODE Pin functionality for FPWM  
* 2.   a. The operating quiescent current and thermal shutdown characteristics have not been modeled.
*      b. Ground pins have been tied to 0V internally,therefore this model cannot be used for inverting topologies.
*
*****************************************************************************
.SUBCKT LMZM33604_TRANS AGND AGND_1 BIAS_SEL CBOOT ENABLE FB NC PGND PGND_0
+  PGND_1 PGND_2 PGND_3 PGND_4 PGND_5 PGND_6 PGND_7 PGOOD PGOOD_PU RT SS_TRK SW
+  SW_1 SW_2 SW_3 SW_4 SW_5 SW_6 SW_7 SW_8 SYNC/MODE VCC VIN VIN_0 VOUT VOUT_0
+  VOUT_1 VOUT_2 VOUT_3 VOUT_4 VOUT_5 VOUT_6  PARAMS: STEADY=0 FASTSS=1
R_R20         PGND PGND_1  1m  
R_R25         SW SW_6  0.001m  
R_R21         SW SW_3  0.001m  
V_V1         AGND PGND 0Vdc
R_R28         PGND PGND_7  1m  
R_R27         SW SW_8  0.001m  
R_U1_R6         VIN VIN  1m  
R_U1_U4_R15         U1_PH1 U1_U4_N16800531  21.65 TC=0,0 
R_U1_U4_R14         U1_U4_N16800108 U1_U4_BOOT_UVLO  1 TC=0,0 
D_U1_U4_D64         U1_SW U1_U4_N16799952 D_D1 
X_U1_U4_U646         U1_U4_BOOT_UVLO U1_LDRV U1_U4_BOOT_SW_ON OR2_BASIC_GEN
+  PARAMS: VDD=1 VSS=0 VTHRESH=500E-3
D_U1_U4_D70         U1_U4_N16800365 CBOOT D_D1 
D_U1_U4_D73         U1_U4_N16800531 U1_PH1 D_D1 
E_U1_U4_E4         U1_U4_VY_CMD 0 U1_U4_N16799808 0 20
E_U1_U4_E5         U1_U4_SWIN 0 U1_SW U1_PGND 1
R_U1_U4_R11         U1_PH2 U1_U4_N16800618  72.15 TC=0,0 
C_U1_U4_C9         0 U1_U4_N16800147  1n  TC=0,0 
X_U1_U4_U645         U1_PH2 U1_U4_N16799707 INV_BASIC_GEN PARAMS: VDD=1 VSS=0
+  VTHRESH=500E-3
C_U1_U4_C8         0 U1_U4_N16800618  1n  TC=0,0 
R_U1_U4_R12         U1_PH1 U1_U4_N16800147  115 TC=0,0 
E_U1_U4_ABM175         U1_U4_N16799931 0 VALUE { LIMIT(V(U1_U4_N16799733),
+  0.88,0)    }
X_U1_U4_U644         U1_U4_N16799707 U1_U4_ZX_NEG_VY U1_U4_ZCDLRES
+  OR2_BASIC_GEN PARAMS: VDD=1 VSS=0 VTHRESH=500E-3
X_U1_U4_S5    U1_U4_N16800211 0 U1_HDRV U1_SW Driver_mod_U1_U4_S5 
V_U1_U4_V7         VIN U1_U4_N16799952 -.25
D_U1_U4_D69         U1_U4_N16800147 U1_PH1 D_D1 
D_U1_U4_D68         U1_U4_N16800618 U1_PH2 D_D1 
C_U1_U4_C181         0 U1_U4_N16800893  1n  TC=0,0 
V_U1_U4_V8         U1_SW U1_U4_N16799955 -.25
E_U1_U4_E2         U1_U4_N16799733 0 U1_COMP 0 1
X_U1_U4_U679         U1_U4_N16800029 U1_U4_N16800038 U1_FFWD N16800715
+  srlatchrhp_basic_gen PARAMS: VDD=1 VSS=0 VTHRESH=0.5
R_U1_U4_R280         U1_PH1 U1_U4_N16800893  230 TC=0,0 
X_U1_U4_U661         U1_U4_VY_OK U1_U4_ZX_NEG_VY U1_U4_LS_READY OR2_BASIC_GEN
+  PARAMS: VDD=1 VSS=0 VTHRESH=500E-3
X_U1_U4_U612         U1_U4_N16800147 U1_PH1 U1_H_BLNCK AND2_BASIC_GEN PARAMS:
+  VDD=1 VSS=0 VTHRESH=500E-3
X_U1_U4_U611         U1_U4_N16800618 U1_PH2 U1_U4_L_BLNCK AND2_BASIC_GEN
+  PARAMS: VDD=1 VSS=0 VTHRESH=500E-3
D_U1_U4_D74         U1_U4_N16800893 U1_PH1 D_D1 
C_U1_U4_C179         VIN U1_SW  0.01n  TC=0,0 
X_U1_U4_U650         U1_HICCUP U1_U4_N16800275 INV_BASIC_GEN PARAMS: VDD=1
+  VSS=0 VTHRESH=500E-3
X_U1_U4_U648         U1_U4_HDRV_INT U1_U4_N16800211 INV_BASIC_GEN PARAMS: VDD=1
+  VSS=0 VTHRESH=500E-3
C_U1_U4_C180         U1_SW U1_PGND  10p  TC=0,0 
V_U1_U4_V6         U1_U4_N16799931 U1_U4_N16799768 150m
E_U1_U4_ABM173         U1_U4_ZCDTHRESH 0 VALUE { if(V(U1_FPWM_GATE) >0.5,
+  0.275, 0.1m)    }
X_U1_U4_S1    U1_HDRV U1_SW VIN U1_SW Driver_mod_U1_U4_S1 
X_U1_U4_U681         U1_U4_N16800893 U1_PH1 U1_TOFF_TIMEOUT AND2_BASIC_GEN
+  PARAMS: VDD=1 VSS=0 VTHRESH=500E-3
X_U1_U4_S4    U1_U4_HDRV_INT 0 CBOOT U1_HDRV Driver_mod_U1_U4_S4 
X_U1_U4_U664         U1_FPWM_GATE U1_U4_ZX_NEG_VY U1_U4_N16800029
+  AND2_BASIC_GEN PARAMS: VDD=1 VSS=0 VTHRESH=500E-3
E_U1_U4_ABM174         U1_U4_N16799808 0 VALUE {
+  LIMIT(V(U1_U4_N16799768)*0.4452, 10,-10)    }
X_U1_U4_S2    U1_LDRV 0 U1_SW U1_PGND Driver_mod_U1_U4_S2 
X_U1_U4_U643         U1_U4_LDRV_INT U1_U4_LDRV_INTB U1_PH2 U1_U4_S1
+  U1_U4_ZCDLRES 0 dffsr_rhpbasic_gen PARAMS: VDD=1 VSS=0 VTHRESH=500E-3
E_U1_U4_E3         U1_U4_N16799810 0 U1_U4_N16799808 0 -1
X_U1_U4_U652         U1_U4_LDRV_INT U1_U4_N16800275 U1_U4_N16800387 U1_LDRV
+  AND3_BASIC_GEN PARAMS: VDD=1 VSS=0 VTHRESH=500E-3
X_U1_U4_U617         U1_U4_SWIN U1_U4_N16799615 U1_U4_ZCD COMP_BASIC_GEN
+  PARAMS: VDD=1 VSS=0 VTHRESH=0.5
X_U1_U4_U678         U1_FFWD U1_U4_N16800038 BUF_BASIC_GEN PARAMS: VDD=1 VSS=0
+  VTHRESH=0.5
X_U1_U4_U659         U1_U4_SWIN U1_U4_N16799810 U1_U4_N16799878 COMP_BASIC_GEN
+  PARAMS: VDD=1 VSS=0 VTHRESH=0.5
X_U1_U4_U615         U1_U4_ZCD U1_U4_L_BLNCK U1_U4_ZX_NEG_VY AND2_BASIC_GEN
+  PARAMS: VDD=1 VSS=0 VTHRESH=500E-3
V_U1_U4_V5         U1_U4_S1 0 1
X_U1_U4_U610         U1_U4_N16800531 U1_PH1 U1_U4_HDRV_INT AND2_BASIC_GEN
+  PARAMS: VDD=1 VSS=0 VTHRESH=500E-3
D_U1_U4_D65         U1_PGND U1_U4_N16799955 D_D1 
X_U1_U4_U680         U1_U4_LS_READY U1_PH1 U1_CONT U1_U4_CONTBAR
+  srlatchrhp_basic_gen PARAMS: VDD=1 VSS=0 VTHRESH=0.5
E_U1_U4_ABM172         U1_U4_N16800108 0 VALUE { IF(((V(U1_SDWN) < 0.5)
+  &((V(CBOOT) - V(U1_SW)) > 2.8)), 0 , 1)    }
X_U1_U4_U651         U1_SDWN U1_U4_N16800387 INV_BASIC_GEN PARAMS: VDD=1 VSS=0
+  VTHRESH=500E-3
C_U1_U4_C14         0 U1_U4_N16800531  1n  TC=0,0 
C_U1_U4_C13         0 U1_U4_BOOT_UVLO  1n  TC=0,0 
E_U1_U4_E1         U1_U4_N16799615 0 U1_U4_ZCDTHRESH 0 1
X_U1_U4_U660         U1_U4_N16799878 U1_U4_L_BLNCK U1_U4_VY_OK AND2_BASIC_GEN
+  PARAMS: VDD=1 VSS=0 VTHRESH=500E-3
X_U1_U4_S35    U1_LDRV 0 U1_U4_N16800365 VCC Driver_mod_U1_U4_S35 
R_U1_R22         U1_SW SW  0.001m  
X_U1_U2_U4         U1_VREF U1_U2_N16727106 U1_SS_DONE COMP_BASIC_GEN PARAMS:
+  VDD=1 VSS=0 VTHRESH=0.5
V_U1_U2_V8         U1_U2_N16736482 0 1.1
E_U1_U2_ABM8         U1_U2_N16702433 0 VALUE { if( V(U1_U2_N16732884) >0.5, 1, 
+   
+ MIN(V(U1_U2_SS_INT)  
+ ,V(U1_U2_N16728809) ))  }
X_U1_U2_U3         U1_SDWN U1_HICCUP U1_U2_DISCH OR2_BASIC_GEN PARAMS: VDD=1
+  VSS=0 VTHRESH=500E-3
X_U1_U2_S2    U1_U2_DISCH 0 SS_TRK AGND SOFT_START_U1_U2_S2 
V_U1_U2_V5         U1_U2_N16727106 0 0.95
V_U1_U2_V1         U1_U2_N16645820 0 1.2
G_U1_U2_ABMII2         U1_U2_N16728282 SS_TRK VALUE { IF(V(U1_U2_DISCH) >
+  0.5,0, {2u* (1+ 4*FASTSS))}    }
G_U1_U2_ABMII1         U1_U2_N16645820 U1_U2_SS_INT VALUE { IF(V(U1_U2_DISCH) >
+  0.5,0, {2u* (1+ 4*FASTSS))}    }
C_U1_U2_C3         SS_TRK AGND  10p IC={STEADY*1} 
X_U1_U2_S1    U1_U2_DISCH 0 U1_U2_SS_INT 0 SOFT_START_U1_U2_S1 
E_U1_U2_E2         U1_U2_N16728809 0 SS_TRK AGND 1
V_U1_U2_V7         U1_U2_N16732884 0  
+PWL 0 {STEADY} 10u {STEADY} 10.1u 0 
C_U1_U2_C1         U1_U2_SS_INT 0  10n IC={STEADY} 
E_U1_U2_ABM9         U1_U2_N16733572 0 VALUE { MIN(V(U1_U2_N16702433) ,1)    }
D_U1_U2_D62         U1_U2_SS_INT U1_U2_N16645820 D_D1 
D_U1_U2_D66         SS_TRK U1_U2_N16728282 D_D1 
X_U1_U2_U5         U1_U2_N16702433 U1_U2_N16736482 U1_PGOODDEL COMP_BASIC_GEN
+  PARAMS: VDD=1 VSS=0 VTHRESH=0.5
V_U1_U2_V6         U1_U2_N16728282 AGND 1.2
E_U1_U2_E1         U1_VREF 0 U1_U2_N16733572 0 1
R_U1_R23         U1_SW SW  0.001m  
R_U1_R17         U1_PGND PGND  1m  
X_U1_U7_U621         VIN BIAS_SEL U1_U7_BIAS_OK U1_U7_N16762352 MUX2_BASIC_GEN
+  PARAMS: VDD=1 VSS=0 VTHRESH=0.5
X_U1_U7_U615         VCC U1_U7_N16735320 U1_U7_N16735276 U1_U7_VCC_OK
+  COMPHYS_BASIC_GEN PARAMS: VDD=1 VSS=0 VTHRESH=0.5
X_U1_U7_U614         U1_EN U1_U7_N16735086 U1_U7_N16735008 U1_U7_EN_OK
+  COMPHYS_BASIC_GEN PARAMS: VDD=1 VSS=0 VTHRESH=0.5
V_U1_U7_V9         U1_U7_N16735320 0 3.14
V_U1_U7_V7         U1_U7_N16735086 0 1.196
X_U1_U7_U618         U1_U7_VCC_OK U1_U7_VCCOK_B INV_BASIC_GEN PARAMS: VDD=1
+  VSS=0 VTHRESH=500E-3
X_U1_U7_U617         U1_U7_EN_OK U1_U7_ENOK_B INV_BASIC_GEN PARAMS: VDD=1 VSS=0
+  VTHRESH=500E-3
V_U1_U7_V12         U1_U7_N16735188 0  
+PULSE {1-STEADY} 0 1u 1n 1n 1 2
X_U1_U7_U620         BIAS_SEL U1_U7_N16735430 U1_U7_N16735502 U1_U7_BIAS_OK
+  COMPHYS_BASIC_GEN PARAMS: VDD=1 VSS=0 VTHRESH=0.5
X_U1_U7_U623         U1_EN U1_U7_N16763159 U1_U7_N16763211 U1_U7_ENABLE_VCC
+  COMPHYS_BASIC_GEN PARAMS: VDD=1 VSS=0 VTHRESH=0.5
V_U1_U7_V10         U1_U7_N16735430 0 3.2
E_U1_U7_ABM1         VCC 0 VALUE { IF (V(U1_U7_ENABLE_VCC)>0.5,  
+ IF(V(U1_U7_N16762352)>3.15,3.15,V(U1_U7_N16762352)),0)   }
V_U1_U7_V13         U1_U7_N16763159 0 1.15
V_U1_U7_V6         U1_U7_N16735008 0 100m
V_U1_U7_V11         U1_U7_N16735502 0 0.1
V_U1_U7_V8         U1_U7_N16735276 0 0.5
V_U1_U7_V14         U1_U7_N16763211 0 0.85
X_U1_U7_U622         U1_U7_ENOK_B U1_U7_ENOK_B U1_U7_VCCOK_B U1_U7_N16735188
+  U1_SDWN OR4_BASIC_GEN PARAMS: VDD=1 VSS=0 VTHRESH=500E-3
E_U1_E1         U1_FBI 0 FB AGND 1
V_U1_U1_V14         U1_U1_N16747077 0 1.35
X_U1_U1_U679         U1_U1_TOFFTIMERINPUT U1_U1_N16750859 U1_TOFFBAR
+  COMP_BASIC_GEN PARAMS: VDD=1 VSS=0 VTHRESH=0.5
C_U1_U1_C7         0 U1_FBI  .7p  
E_U1_U1_ABM1         U1_U1_N16755741 0 VALUE { LIMIT((V(U1_VREF) * 4.05),3.3,0)
+     }
D_U1_U1_D13         U1_U1_VCOMP U1_U1_5V D_D 
X_U1_U1_F1    U1_U1_5V U1_U1_N16752851 U1_U1_TOFFTIMERINPUT 0
+  ERROR_AMPLIFIER_mod_U1_U1_F1 
E_U1_U1_E2         U1_U1_N16745950 0 U1_U1_VCOMP 0 0.9
C_U1_U1_C4         0 U1_U1_N16746537  .4p  
G_U1_U1_ABM2I1         U1_U1_5V U1_U1_VCOMP VALUE { LIMIT((V(U1_VREF) -
+  V(U1_FBI))*33u, -3u,3u)    }
I_U1_U1_I1         U1_U1_5V U1_U1_TOFFTIMERINPUT DC 1u  
V_U1_U1_V12         U1_U1_N16750859 0 0.9
X_U1_U1_S1    U1_U1_N16753555 0 U1_U1_VCOMP 0 ERROR_AMPLIFIER_mod_U1_U1_S1 
R_U1_U1_R2         U1_U1_N16746735 U1_U1_N16746537  397k  
X_U1_U1_U681         U1_COMP U1_U1_N16755176 U1_COMP_OCP COMP_BASIC_GEN PARAMS:
+  VDD=1 VSS=0 VTHRESH=0.5
E_U1_U1_E3         U1_COMP 0 U1_U1_N16746537 0 1
V_U1_U1_V9         U1_U1_N16745950 U1_U1_N16746735 612m
C_U1_U1_C5         U1_U1_N16750089 0  2p  
G_U1_U1_ABM2I3         U1_U1_N16752851 U1_U1_VCOMP VALUE {
+  LIMIT((V(U1_U1_N16747345) - V(U1_COMP))*35m, 0,20u)    }
V_U1_U1_V15         U1_U1_N16755176 0 1.38
X_U1_U1_S2    U1_U1_N16750466 0 U1_U1_N16750089 0 ERROR_AMPLIFIER_mod_U1_U1_S2 
R_U1_U1_R5         U1_U1_N16751639 U1_U1_VCOMP  500k  
X_U1_U1_U680         U1_HICCUP U1_HICCUP U1_U1_N16753555 OR2_BASIC_GEN PARAMS:
+  VDD=1 VSS=0 VTHRESH=500E-3
G_U1_U1_ABM2I2         U1_U1_VCOMP 0 VALUE { LIMIT((V(U1_COMP) -
+  V(U1_U1_N16747077))*35m, 0,50u)    }
D_U1_U1_D14         0 U1_U1_VCOMP D_D 
V_U1_U1_V11         U1_U1_5V 0 10
C_U1_U1_C6         0 U1_U1_N16751639  31.85p  
G_U1_U1_ABM2I4         U1_U1_VCOMP 0 VALUE { LIMIT((V(U1_COMP) -
+  V(U1_U1_N16755741))*35m, 0,30u)    }
R_U1_U1_R3         U1_U1_N16750089 U1_U1_TOFFTIMERINPUT  990k  
D_U1_U1_D11         U1_U1_TOFFTIMERINPUT U1_U1_5V D_D 
R_U1_U1_R4         0 U1_U1_N16750089  1G  
V_U1_U1_V10         U1_U1_N16747345 0 150m
D_U1_U1_D10         0 U1_U1_TOFFTIMERINPUT D_D 
R_U1_U1_R6         U1_FBI U1_FBI  200k  
X_U1_U1_U678         U1_CONT U1_RMPOK U1_U1_N16750466 NAND2_BASIC_GEN PARAMS:
+  VDD=1 VSS=0 VTHRESH=500E-3
R_U1_R18         U1_PGND PGND  1m  
X_U1_U5_U611         U1_U5_N16864724 U1_U5_H_END INV_DELAY_BASIC_GEN PARAMS:
+  VDD=1 VSS=0 VTHRESH=0.5 DELAY=5u
X_U1_U5_U626         U1_U5_N16873419 U1_U5_N16873419 U1_U5_HICCUP_N U1_PGOOD_EN
+  U1_U5_N16815454 AND4_BASIC_GEN PARAMS: VDD=1 VSS=0 VTHRESH=500E-3
X_U1_U5_U153         U1_U5_N16875012 U1_U5_N16873419 one_shot PARAMS:  T=20  
V_U1_U5_V5         U1_U5_N16873139 0  
+PWL 0 1 100u 1 101u 0 
X_U1_U5_U607         U1_U5_N16777841 U1_U5_N16777837 INV_DELAY_BASIC_GEN
+  PARAMS: VDD=1 VSS=0 VTHRESH=0.5 DELAY=10u
R_U1_U5_R8         U1_U5_N16777841 U1_HICCUP  1  
X_U1_U5_U608         U1_U5_N16777841 U1_U5_N16777837 U1_U5_N16777926
+  AND2_BASIC_GEN PARAMS: VDD=1 VSS=0 VTHRESH=500E-3
V_U1_U5_V4         U1_U5_N16778004 0 1
C_U1_U5_C7         0 U1_U5_N16778000  4.8u IC=0 
G_U1_U5_G3         0 U1_U5_N16777880 U1_U5_N16815454 0 100m
X_U1_U5_U628         U1_U5_N16875006 U1_PH1 U1_U5_N16875012 N16875009
+  srlatchrhp_basic_gen PARAMS: VDD=1 VSS=0 VTHRESH=0.5
R_U1_U5_U2_R1         U1_U5_N16793743 U1_U5_U2_N00780  144.3001443  
C_U1_U5_U2_C1         0 U1_U5_U2_N00780  1n  
X_U1_U5_U2_U621         U1_U5_U2_N00140 U1_U5_U2_N00220 INV_BASIC_GEN PARAMS:
+  VDD=1 VSS=0 VTHRESH=500E-3
X_U1_U5_U2_U607         U1_U5_U2_N00140 U1_U5_U2_N03610 INV_DELAY_BASIC_GEN
+  PARAMS: VDD=1 VSS=0 VTHRESH=0.5 DELAY=50n
X_U1_U5_U2_U618         U1_U5_U2_N00220 U1_U5_U2_N02470 U1_U5_N16792752
+  AND2_BASIC_GEN PARAMS: VDD=1 VSS=0 VTHRESH=500E-3
D_U1_U5_U2_D1         U1_U5_N16793743 U1_U5_U2_N00780 D_D1 
X_U1_U5_U2_U620         U1_U5_N16793743 U1_U5_U2_N00780 U1_U5_U2_N00140
+  OR2_BASIC_GEN PARAMS: VDD=1 VSS=0 VTHRESH=500E-3
X_U1_U5_U2_U608         U1_U5_U2_N03610 U1_U5_U2_N02470 INV_DELAY_BASIC_GEN
+  PARAMS: VDD=1 VSS=0 VTHRESH=0.5 DELAY=50n
X_U1_U5_U609         U1_U5_N16777880 U1_U5_N16777884 U1_U5_N16777867
+  COMP_BASIC_GEN PARAMS: VDD=1 VSS=0 VTHRESH=0.5
G_U1_U5_G4         0 U1_U5_N16778000 U1_HICCUP 0 {0.1m* (1 + 9*FASTSS)}
X_U1_U5_U610         U1_U5_N16777952 U1_U5_N16864724 INV_DELAY_BASIC_GEN
+  PARAMS: VDD=1 VSS=0 VTHRESH=0.5 DELAY=5u
X_U1_U5_S4    U1_U5_H_END 0 U1_U5_N16778000 0 HICCUP1_U1_U5_S4 
E_U1_U5_ABM9         U1_U5_N16793743 0 VALUE { {IF(V(U1_COMP) > 1,1,0)}    }
X_U1_U5_U629         U1_UVP U1_TOFF_TIMEOUT U1_U5_N16875006 AND2_BASIC_GEN
+  PARAMS: VDD=1 VSS=0 VTHRESH=500E-3
V_U1_U5_V2         U1_U5_N16777884 0 128
C_U1_U5_C5         0 U1_U5_N16777841  1n  
X_U1_U5_U612         U1_U5_N16778000 U1_U5_N16778004 U1_U5_N16777947
+  COMP_BASIC_GEN PARAMS: VDD=1 VSS=0 VTHRESH=0.5
R_U1_U5_R5         U1_U5_N16777952 U1_U5_N16777947  1  
X_U1_U5_S3    U1_U5_N16777933 0 U1_U5_N16777880 0 HICCUP1_U1_U5_S3 
X_U1_U5_U30         U1_U5_N16777867 U1_U5_H_END U1_HICCUP U1_U5_HICCUP_N
+  srlatchrhp_basic_gen PARAMS: VDD=1 VSS=0 VTHRESH=0.5
C_U1_U5_C6         0 U1_U5_N16777880  2n IC=0 
C_U1_U5_C8         0 U1_U5_N16777952  1n  
X_U1_U5_U627         U1_U5_N16792752 U1_U5_N16873139 U1_U5_N16777926
+  U1_U5_N16777933 OR3_BASIC_GEN PARAMS: VDD=1 VSS=0 VTHRESH=500E-3
X_U1_U10_U619         U1_U10_N16817296 U1_FBI U1_U10_N16817256 U1_U10_N16819234
+  COMPHYS_BASIC_GEN PARAMS: VDD=1 VSS=0 VTHRESH=0.5
X_U1_U10_U617         U1_HICCUP U1_U10_N16818724 INV_BASIC_GEN PARAMS: VDD=1
+  VSS=0 VTHRESH=500E-3
V_U1_U10_V6         U1_U10_N16817256 0 15m
X_U1_U10_U625         U1_SS_DONE U1_U10_N16819234 U1_UVP AND2_BASIC_GEN PARAMS:
+  VDD=1 VSS=0 VTHRESH=500E-3
E_U1_U10_ABM6         U1_PGOOD_EN 0 VALUE { if ( V(U1_U10_TDELAY) > 0.5 , 1, 0)
+     }
X_U1_U10_U621         U1_U10_N16818724 U1_U10_N16818947 U1_U10_HICC_RES
+  AND2_BASIC_GEN PARAMS: VDD=1 VSS=0 VTHRESH=500E-3
C_U1_U10_C161         0 U1_U10_TDELAY  1n  
X_U1_U10_S20    U1_U10_N16799779 0 U1_U10_TDELAY 0 PGOOD_U1_U10_S20 
X_U1_U10_U622         U1_U10_N16818724 U1_U10_N16818942 INV_BASIC_GEN PARAMS:
+  VDD=1 VSS=0 VTHRESH=500E-3
V_U1_U10_V2         U1_U10_N16787180 0 900m
R_U1_U10_R285         U1_U10_TONMIN U1_U10_TDELAY  100k  
E_U1_U10_ABM3         U1_U10_PG 0 VALUE { IF( V(U1_PGOODDEL) > 0.5 | 
+ {STEADY}>0.5,  
+ V(U1_U10_GLITCH),1 )   }
V_U1_U10_V3         U1_U10_N16627165 0 1.1
V_U1_U10_V7         U1_U10_N16817296 0 .4
X_U1_U10_S19    U1_PGOOD_EN AGND PGOOD AGND PGOOD_U1_U10_S19 
X_U1_U10_U614         U1_U10_N16627165 U1_FBI U1_U10_N16626981 U1_U10_OVP_N
+  COMPHYS_BASIC_GEN PARAMS: VDD=1 VSS=0 VTHRESH=0.5
X_U1_U10_U623         U1_U10_OVP_N U1_OVP INV_BASIC_GEN PARAMS: VDD=1 VSS=0
+  VTHRESH=500E-3
V_U1_U10_V1         U1_U10_N16625533 0 10m
X_U1_U10_U1_U827         U1_U10_U1_N00420 0 U1_U10_U1_PULSEHI AND2_BASIC_GEN
+  PARAMS: VDD=1 VSS=0 VTHRESH=500E-3
C_U1_U10_U1_C178         0 U1_U10_U1_N02680  1n  
C_U1_U10_U1_C177         0 U1_U10_U1_N00242  1n  
X_U1_U10_U1_U825         U1_U10_U1_PULSEHI U1_U10_U1_N00242 0 N00452
+  OR3_BASIC_GEN PARAMS: VDD=1 VSS=0 VTHRESH=500E-3
R_U1_U10_U1_R286         U1_U10_PG U1_U10_U1_N02680  36k  
X_U1_U10_U1_U826         0 U1_U10_U1_N00420 INV_DELAY_BASIC_GEN PARAMS: VDD=1
+  VSS=0 VTHRESH=0.5 DELAY=50n
D_U1_U10_U1_D10         U1_U10_U1_PULSEHI U1_U10_U1_N00242 D_D1 
R_U1_U10_U1_R285         U1_U10_U1_PULSEHI U1_U10_U1_N00242  28.86002886k  
X_U1_U10_U1_U828         U1_U10_U1_N02680 U1_U10_TONMIN BUF_BASIC_GEN PARAMS:
+  VDD=1 VSS=0 VTHRESH=0.5
V_U1_U10_V5         U1_U10_N16805765 0 1
X_U1_U10_U624         U1_UVP U1_U10_HICC_RES U1_U10_UVP_LATCH U1_U10_UVP_N
+  srlatchrhp_basic_gen PARAMS: VDD=1 VSS=0 VTHRESH=0.5
X_U1_U10_U613         U1_U10_N16787180 U1_FBI U1_U10_N16625533 U1_U10_UVPPGOOD
+  COMPHYS_BASIC_GEN PARAMS: VDD=1 VSS=0 VTHRESH=0.5
X_U1_U10_S21    U1_U10_N16803363 0 U1_U10_TDELAY U1_U10_N16805765
+  PGOOD_U1_U10_S21 
R_U1_U10_U2_R1         U1_PGOOD_EN U1_U10_U2_N00780  144.3001443  
C_U1_U10_U2_C1         0 U1_U10_U2_N00780  1n  
X_U1_U10_U2_U621         U1_U10_U2_N00140 U1_U10_U2_N00220 INV_BASIC_GEN
+  PARAMS: VDD=1 VSS=0 VTHRESH=500E-3
X_U1_U10_U2_U607         U1_U10_U2_N00140 U1_U10_U2_N03610 INV_DELAY_BASIC_GEN
+  PARAMS: VDD=1 VSS=0 VTHRESH=0.5 DELAY=50n
X_U1_U10_U2_U618         U1_U10_U2_N00220 U1_U10_U2_N02470 U1_U10_N16799779
+  AND2_BASIC_GEN PARAMS: VDD=1 VSS=0 VTHRESH=500E-3
D_U1_U10_U2_D1         U1_PGOOD_EN U1_U10_U2_N00780 D_D1 
X_U1_U10_U2_U620         U1_PGOOD_EN U1_U10_U2_N00780 U1_U10_U2_N00140
+  OR2_BASIC_GEN PARAMS: VDD=1 VSS=0 VTHRESH=500E-3
X_U1_U10_U2_U608         U1_U10_U2_N03610 U1_U10_U2_N02470 INV_DELAY_BASIC_GEN
+  PARAMS: VDD=1 VSS=0 VTHRESH=0.5 DELAY=50n
V_U1_U10_V4         U1_U10_N16626981 0 10m
X_U1_U10_U618         U1_U10_UVPPGOOD U1_OVP U1_U10_GLITCH OR2_BASIC_GEN
+  PARAMS: VDD=1 VSS=0 VTHRESH=500E-3
X_U1_U10_U3_U607         U1_PGOOD_EN U1_U10_U3_N04955 INV_DELAY_BASIC_GEN
+  PARAMS: VDD=1 VSS=0 VTHRESH=0.5 DELAY=50n
X_U1_U10_U3_U618         U1_PGOOD_EN U1_U10_U3_N04955 U1_U10_N16803363
+  AND2_BASIC_GEN PARAMS: VDD=1 VSS=0 VTHRESH=500E-3
C_U1_U10_C162         0 U1_U10_N16818947  1n  
R_U1_U10_R286         U1_U10_N16818942 U1_U10_N16818947  1k  
X_U1_U3_S30    U1_U3_RMPOKBAR 0 U1_U3_N33130 U1_U3_RAMP
+  Oscillator_mod_U1_U3_S30 
C_U1_U3_C6         0 U1_U3_N16792801  3n IC=0 
X_U1_U3_U680         U1_SS_DONE U1_U3_FPWMFORCE U1_FPWM_GATE AND2_BASIC_GEN
+  PARAMS: VDD=1 VSS=0 VTHRESH=500E-3
X_U1_U3_U146         U1_HICCUP U1_SDWN U1_U3_N16793408 NOR2_BASIC_GEN PARAMS:
+  VDD=1 VSS=0 VTHRESH=500E-3
X_U1_U3_U609         U1_U3_N16792801 U1_U3_N16792805 U1_U3_N16792798
+  COMP_BASIC_GEN PARAMS: VDD=1 VSS=0 VTHRESH=0.5
X_U1_U3_U1         U1_U3_N16868915 VIN U1_U3_N004973 U1_U3_SYNC_VINB
+  COMPHYS2_BASIC_GEN PARAMS: VDD=1 VSS=0 VTHRESH=0.5 T=10
V_U1_U3_V11         U1_U3_N214670 0 1
X_U1_U3_U145         U1_U3_N16793415 U1_U3_N16793408 U1_CLK AND2_BASIC_GEN
+  PARAMS: VDD=1 VSS=0 VTHRESH=500E-3
X_U1_U3_U30         U1_U3_N16792798 U1_U3_RESET_CLK U1_U3_N16792781 N16792795
+  srlatchrhp_basic_gen PARAMS: VDD=1 VSS=0 VTHRESH=0.5
V_U1_U3_V2         U1_U3_N16792805 0 10.24
D_U1_U3_D62         U1_U3_N33130 U1_U3_1V D_D1 
C_U1_U3_C149         U1_U3_CLK_INT_DISABLE 0  4.11n  TC=0,0 
V_U1_U3_V8         U1_U3_N004973 0 1
X_U1_U3_U677         U1_RMPOK U1_U3_RMPOKBAR U1_U3_RAMP_COMP U1_U3_S1 U1_CLK 0
+  dffsr_rhpbasic_gen PARAMS: VDD=1 VSS=0 VTHRESH=500E-3
D_U1_U3_D61         U1_U3_N16792762 U1_U3_CLK_INT_DISABLE D_D1 
R_U1_U3_R6         AGND RT  1e11  
X_U1_U3_U142         U1_U3_CLK_RT U1_U3_CLK_SYNC U1_U3_CLK_SYNC_EN
+  U1_U3_N16793489 MUX2_BASIC_GEN PARAMS: VDD=1 VSS=0 VTHRESH=0.5
R_U1_U3_R8         U1_U3_CLK_SYNC_EN U1_U3_N16792781  1  
R_U1_U3_R5         U1_U3_N16792762 U1_U3_CLK_INT_DISABLE  1k TC=0,0 
X_U1_U3_U686         U1_U3_CLK_SYNC_I U1_U3_CLK_SYNC U1_U3_N16792773
+  AND2_BASIC_GEN PARAMS: VDD=1 VSS=0 VTHRESH=500E-3
D_U1_U3_D63         U1_U3_N16757548 U1_U3_1V D_D1 
V_U1_U3_V10         U1_U3_N36766 0 1.5
E_U1_U3_E1         U1_U3_N16792762 0 U1_U3_CLK_SYNC 0 1
G_U1_U3_G1         U1_U3_1V U1_U3_N16757548 U1_U3_N16782644 0 0.133m
X_U1_U3_S26    U1_U3_DISCHARGE 0 U1_U3_RAMP 0 Oscillator_mod_U1_U3_S26 
X_U1_U3_U681         U1_FFWD U1_U3_N16793492 U1_U3_N16793415 OR2_BASIC_GEN
+  PARAMS: VDD=1 VSS=0 VTHRESH=500E-3
X_U1_U3_U687         U1_U3_CLK_INT_DISABLE U1_U3_CLK_SYNC_I BUF_BASIC_GEN
+  PARAMS: VDD=1 VSS=0 VTHRESH=0.5
V_U1_U3_V50         U1_U3_S1 0 1
X_U1_U3_U685         U1_CONT U1_U3_N16793489 U1_U3_N16793492 AND2_BASIC_GEN
+  PARAMS: VDD=1 VSS=0 VTHRESH=500E-3
V_U1_U3_V47         U1_U3_N16845023 0 1.05
X_U1_U3_U679         U1_TOFFBAR U1_FPWM_GATE U1_U3_N36280 OR2_BASIC_GEN PARAMS:
+  VDD=1 VSS=0 VTHRESH=500E-3
X_U1_U3_U148         U1_SDWN U1_U3_SYNC_SDWNB INV_DELAY_BASIC_GEN PARAMS: VDD=1
+  VSS=0 VTHRESH=0.5 DELAY={660u *( 1- STEADY* 0.9)}
X_U1_U3_U607         U1_U3_CLK_SYNC_EN U1_U3_N16793001 INV_DELAY_BASIC_GEN
+  PARAMS: VDD=1 VSS=0 VTHRESH=0.5 DELAY=1u
X_U1_U3_H1    U1_U3_N32784 RT U1_U3_N16797210 U1_U3_N16782445
+  Oscillator_mod_U1_U3_H1 
D_U1_U3_D14         0 U1_U3_N33130 D_D1 
X_U1_U3_U138         0 U1_HDRV N16756298 N16756288 srlatchrhp_basic_gen PARAMS:
+  VDD=1 VSS=0 VTHRESH=0.5
X_U1_U3_U608         U1_U3_CLK_SYNC_EN U1_U3_N16793001 U1_U3_N16792996
+  AND2_BASIC_GEN PARAMS: VDD=1 VSS=0 VTHRESH=500E-3
X_U1_U3_U676         SYNC/MODE U1_U3_N36766 U1_U3_N214670 U1_U3_FPWMFORCE
+  COMPHYS_BASIC_GEN PARAMS: VDD=1 VSS=0 VTHRESH=0.5
X_U1_U3_U131         U1_U3_RAMP U1_U3_N16845023 U1_U3_RAMP_COMP COMP_BASIC_GEN
+  PARAMS: VDD=1 VSS=0 VTHRESH=0.5
V_U1_U3_V49         U1_U3_1V 0 1.2
X_U1_U3_U688         U1_U3_CLK_SYNC_I U1_U3_RESET_CLK INV_BASIC_GEN PARAMS:
+  VDD=1 VSS=0 VTHRESH=500E-3
X_U1_U3_S29    U1_U3_DISCHARGE 0 U1_ISLOPE 0 Oscillator_mod_U1_U3_S29 
C_U1_U3_C79         U1_U3_RAMP 0  3.3p IC=0 
E_U1_U3_E2         U1_U3_N16775006 0 SYNC/MODE AGND 1
V_U1_U3_V48         U1_U3_N32784 AGND 1
X_U1_U3_U689         U1_U3_RESET_CLK U1_U3_N16792996 U1_U3_N16792835
+  OR2_BASIC_GEN PARAMS: VDD=1 VSS=0 VTHRESH=500E-3
X_U1_U3_U682         U1_U3_RMPOKBAR U1_PH1 U1_U3_N16757802 AND2_BASIC_GEN
+  PARAMS: VDD=1 VSS=0 VTHRESH=500E-3
X_U1_U3_U684         U1_U3_N36280 U1_RMPOK U1_U3_CLK_RT AND2_BASIC_GEN PARAMS:
+  VDD=1 VSS=0 VTHRESH=500E-3
X_U1_U3_U137         U1_SDWN U1_CLK U1_U3_DISCHARGE OR2_BASIC_GEN PARAMS: VDD=1
+  VSS=0 VTHRESH=500E-3
V_U1_U3_V51         U1_U3_N16782445 0 0.7m
C_U1_U3_C150         U1_ISLOPE 0  3.3p IC=0 
C_U1_U3_C5         0 U1_U3_CLK_SYNC_EN  1n  
E_U1_U3_ABM6         U1_U3_SYNC_INT 0 VALUE { If(V(U1_U3_SYNC_INT) <0.5,
+  If(V(U1_U3_N16775006)>2, 1, 0), If(V(U1_U3_N16775006)>0.4, 1, 0))     }
G_U1_U3_G2         U1_U3_1V U1_U3_N33130 U1_U3_N16782644 0 0.133m
X_U1_U3_S3    U1_U3_N16792835 0 U1_U3_N16792801 0 Oscillator_mod_U1_U3_S3 
X_U1_U3_U143         U1_U3_SYNC_INT U1_U3_CLK_SYNC one_shot PARAMS:  T=30  
E_U1_U3_ABM7         U1_U3_N16782644 0 VALUE { if(V(U1_U3_N16797210) <0.701m,
+  13.4m, if(V(U1_U3_N16797210) > 58.17m, 58.17m, V(U1_U3_N16797210)))     }
X_U1_U3_S28    U1_U3_N16757802 0 U1_U3_N16757548 U1_ISLOPE
+  Oscillator_mod_U1_U3_S28 
G_U1_U3_G3         0 U1_U3_N16792801 U1_U3_N16792773 0 10m
V_U1_U3_V7         U1_U3_N16868915 0 21
R_U1_R19         VIN VIN  1m  
R_U1_R13         U1_SW SW  0.001m  
R_U1_R8         U1_PGND PGND  1m  
C_U1_U6_C180         U1_U6_VOFFSET 0  4.5p  TC=0,0 
D_U1_U6_D16         U1_U6_HSRAMP U1_U6_V5 D_D1 
E_U1_U6_ABM5         U1_U6_N16759172 0 VALUE { LIMIT(V(U1_ISLOPE)*0.30629, 0,1)
+     }
V_U1_U6_V3         U1_U6_N16758010 0 1
X_U1_U6_U825         U1_U6_N16734139 U1_U6_N16734133 U1_U6_PH1_1 U1_PH1
+  OR3_BASIC_GEN PARAMS: VDD=1 VSS=0 VTHRESH=500E-3
G_U1_U6_ABMII4         U1_U6_N16740446 0 VALUE { if( V(U1_SDWN)< 0 .5 &
+  V(U1_U6_FPWM_GATE_B) >0.5, LIMIT((V(U1_U6_VOFFSET))* 8.904m, 0 ,20),0)    }
X_U1_U6_U829         U1_U6_PH2_1 U1_U6_PREBIAS U1_PH2 AND2_BASIC_GEN PARAMS:
+  VDD=1 VSS=0 VTHRESH=500E-3
G_U1_U6_ABMII1         0 U1_U6_N16740446 VALUE { if( V(U1_SDWN)< 0 .5,
+  LIMIT(V(U1_ISLOPE)* 3.2211m, 0 ,10),0)    }
R_U1_U6_R276         U1_U6_N16734139 U1_U6_N16734133  72.2  
V_U1_U6_V2         U1_U6_V5 0 5
X_U1_U6_U838         U1_SDWN U1_U6_N16756335 INV_BASIC_GEN PARAMS: VDD=1 VSS=0
+  VTHRESH=500E-3
G_U1_U6_ABMII2         U1_U6_N16740446 0 VALUE { if( V(U1_SDWN)< 0 .5,
+  LIMIT((V(U1_COMP)-.15)* 8.904m, 0 ,20),0)    }
X_U1_U6_U844         U1_U6_GT_PK U1_U6_HS_TIMEOUT U1_U6_N16734815 OR2_BASIC_GEN
+  PARAMS: VDD=1 VSS=0 VTHRESH=500E-3
X_U1_U6_U826         U1_U6_PH1_1 U1_U6_N16734677 INV_DELAY_BASIC_GEN PARAMS:
+  VDD=1 VSS=0 VTHRESH=0.5 DELAY=15n
E_U1_U6_E2         U1_U6_N16759176 U1_U6_N16759068 U1_U6_N16759172 0 1
X_U1_U6_U841         U1_U6_N16757793 U1_CONT U1_U6_HS_ON U1_U6_N16757789
+  OR3_BASIC_GEN PARAMS: VDD=1 VSS=0 VTHRESH=500E-3
G_U1_U6_ABMII3         U1_U6_V5 U1_U6_HSRAMP VALUE { if(V(U1_SDWN) <0.5,
+  0.519u,0)    }
R_U1_U6_R278         U1_U6_HS_CMD VIN  51k  
D_U1_U6_D10         U1_U6_N16734139 U1_U6_N16734133 D_D1 
V_U1_U6_V4         U1_U6_N16759068 0 0.14606
X_U1_U6_U839         U1_U6_SET U1_CLK U1_U6_HS_ON OR2_BASIC_GEN PARAMS: VDD=1
+  VSS=0 VTHRESH=500E-3
R_U1_U6_R279         0 U1_U6_N16759708  1e9  
V_U1_U6_V1         U1_U6_N16756364 0 1
X_U1_U6_S5    U1_U6_PH1_1B 0 U1_U6_VOFFSET U1_U6_N16759708
+  GmIphase_mod_U1_U6_S5 
E_U1_U6_ABM1         U1_U6_VOFFSET_NOSAM 0 VALUE { LIMIT( (V(U1_U6_N16759176)  
+ -V(U1_U6_N16758916) )*0.9, 0, 2)   }
C_U1_U6_C178         0 U1_U6_HSRAMP  3.3p  
C_U1_U6_C179         U1_U6_N16759708 0  .45p  TC=0,0 
X_U1_U6_U846         U1_FPWM_GATE U1_U6_FPWM_GATE_B INV_BASIC_GEN PARAMS: VDD=1
+  VSS=0 VTHRESH=500E-3
X_U1_U6_U843         U1_U6_HS_TIMEOUT U1_U6_N16757793 BUF_DELAY_BASIC_GEN
+  PARAMS: VDD=1 VSS=0 VTHRESH=0.5 DELAY=50n
X_U1_U6_U612         U1_VREF U1_FBI U1_U6_N16734995 COMP_BASIC_GEN PARAMS:
+  VDD=1 VSS=0 VTHRESH=0.5
X_U1_U6_U835         U1_U6_HS_CMD U1_SW U1_U6_HS_COMP_OUT COMP_BASIC_GEN
+  PARAMS: VDD=1 VSS=0 VTHRESH=0.5
R_U1_U6_R4         U1_U6_N16734257 0  1Meg TC=0,0 
X_U1_U6_U629         U1_U6_HS_ON U1_U6_N16734815 U1_U6_PH1_1 U1_U6_PH1_1B
+  srlatchrhp_basic_gen PARAMS: VDD=1 VSS=0 VTHRESH=0.5
X_U1_U6_U834         U1_SDWN U1_U6_N16734995 U1_U6_N16734257 U1_U6_PREBIAS
+  srlatchrhp_basic_gen PARAMS: VDD=1 VSS=0 VTHRESH=0.5
X_U1_U6_S1    U1_U6_N16757789 0 U1_U6_HSRAMP 0 GmIphase_mod_U1_U6_S1 
X_U1_U6_U836         U1_U6_HS_COMP_OUT U1_H_BLNCK U1_U6_GT_PK AND2_BASIC_GEN
+  PARAMS: VDD=1 VSS=0 VTHRESH=500E-3
D_U1_U6_D13         0 U1_U6_HS_CMD D_D 
E_U1_U6_ABM4         U1_U6_N16758916 0 VALUE { LIMIT(V(U1_COMP) -150m, -1,1)   
+  }
X_U1_U6_U840         U1_U6_SET U1_U6_N16744485 BUF_DELAY_BASIC_GEN PARAMS:
+  VDD=1 VSS=0 VTHRESH=0.5 DELAY=50n
X_U1_U6_U847         U1_U6_PH1_1 U1_SDWN U1_U6_N16766848 OR2_BASIC_GEN PARAMS:
+  VDD=1 VSS=0 VTHRESH=500E-3
X_U1_U6_F1    0 U1_U6_N16740446 U1_U6_HS_CMD 0 GmIphase_mod_U1_U6_F1 
X_U1_U6_U827         U1_U6_N16734677 U1_U6_PH1_1 U1_U6_N16734139 AND2_BASIC_GEN
+  PARAMS: VDD=1 VSS=0 VTHRESH=500E-3
X_U1_U6_S6    U1_U6_N16766848 0 U1_U6_N16759708 U1_U6_VOFFSET_NOSAM
+  GmIphase_mod_U1_U6_S6 
X_U1_U6_U842         U1_U6_HSRAMP U1_U6_N16758010 U1_U6_HS_TIMEOUT
+  COMP_BASIC_GEN PARAMS: VDD=1 VSS=0 VTHRESH=0.5
X_U1_U6_U828         U1_PH1 U1_U6_PH2_1 INV_BASIC_GEN PARAMS: VDD=1 VSS=0
+  VTHRESH=500E-3
E_U1_U6_E1         U1_U6_PK_CMD 0 VIN U1_U6_HS_CMD 19.6
X_U1_U6_U677         U1_U6_SET N16744338 U1_U6_N16756335 U1_U6_N16756364
+  U1_U6_N16744485 0 dffsr_rhpbasic_gen PARAMS: VDD=1 VSS=0 VTHRESH=500E-3
C_U1_U6_C177         0 U1_U6_N16734133  1n  
R_U1_R7         U1_PGND PGND  1m  
R_U1_R20         U1_SW SW  0.001m  
E_U1_E2         U1_EN 0 ENABLE AGND 1
R_U1_R21         U1_SW SW  0.001m  
R_R22         SW SW_2  0.001m  
L_L1         SW VOUT  6.8uH  
R_R16         PGND PGND_4  1m  
C_C4         BIAS_SEL PGND  1u  
R_R30         PGND PGND_3  1m  
R_R23         SW SW_4  0.001m  
R_R17         PGND PGND_5  1m  
C_C3         PGND VCC  2.2u  
R_R8         VOUT VOUT_2  1m  
R_R31         PGND PGND_2  1m  
R_R14         SW SW_1  0.001m  
C_C2         CBOOT SW  0.47u IC={STEADY*5} 
R_R9         VOUT VOUT_3  1m  
R_R15         AGND AGND_1  1m  
R_R6         VIN VIN_0  1m  
R_R10         VOUT VOUT_4  1m  
R_R11         VOUT VOUT_5  1m  
C_C1         VIN PGND  0.1u  
R_R12         VOUT VOUT_6  1m  