* LP5036
*****************************************************************************
* (C) Copyright 2018 Texas Instruments Incorporated. All rights reserved.
*****************************************************************************
** This model is designed as an aid for customers of Texas Instruments.
** TI and its licensors and suppliers make no warranties, either expressed
** or implied, with respect to this model, including the warranties of
** merchantability or fitness for a particular purpose. The model is
** provided solely on an "as is" basis. The entire risk as to its quality
** and performance is with the customer.
*****************************************************************************
*
* Released by: WEBENCH Design Center, Texas Instruments Inc.
* Part: LP5036
* Date: 30AUG2018
* Model Type: Transient
* Simulator: PSPICE
* Simulator Version: 16.2.0.s003
* EVM Order Number: 
* EVM Users Guide: 
* Datasheet:
*
* Model Version: Final 1.00
*
*****************************************************************************
*
* Updates:
*
* Final 1.00
* Release to Web
*
*****************************************************************************
*$
.SUBCKT LP5036_TRANS BANK_A_COLOR BANK_B_COLOR BANK_BRIGHTNESS BANK_C_COLOR BRIGHT0
+  BRIGHT1 BRIGHT2 BRIGHT3 BRIGHT4 BRIGHT5 BRIGHT6 BRIGHT7 BRIGHT8 BRIGHT9
+  BRIGHT10 BRIGHT11 COLOR0 COLOR1 COLOR2 COLOR3 COLOR4 COLOR5 COLOR6 COLOR7
+  COLOR8 COLOR9 COLOR10 COLOR11 COLOR12 COLOR13 COLOR14 COLOR15 COLOR16 COLOR17
+  COLOR18 COLOR19 COLOR20 COLOR21 COLOR22 COLOR23 COLOR24 COLOR25 COLOR26
+  COLOR27 COLOR28 COLOR29 COLOR30 COLOR31 COLOR32 COLOR33 COLOR34 COLOR35 EN GND
+  IREF LED_Bank_EN0 LED_Bank_EN1 LED_Bank_EN2 LED_Bank_EN3 LED_Bank_EN4
+  LED_Bank_EN5 LED_Bank_EN6 LED_Bank_EN7 LED_Bank_EN8 LED_Bank_EN9 LED_Bank_EN10
+  LED_Bank_EN11 Log_Scale_EN Max_Current_Option OUT0 OUT1 OUT2 OUT3 OUT4 OUT5
+  OUT6 OUT7 OUT8 OUT9 OUT10 OUT11 OUT12 OUT13 OUT14 OUT15 OUT16 OUT17 OUT18
+  OUT19 OUT20 OUT21 OUT22 OUT23 OUT24 OUT25 OUT26 OUT27 OUT28 OUT29 OUT30 OUT31
+  OUT32 OUT33 OUT34 OUT35 PWM_Dithering_EN RESET TEMP VCC  
V_V44         N19703649 GND 0
E_UPWM_U16_ABM13         UPWM_U16_OUT_3BITS_DTHR 0 VALUE {
+  V(UPWM_U16_OUT_12BITS)-8*V(UPWM_U16_OUT_9BITS)    }
E_UPWM_U16_ABM14         UPWM_PWM_VAL15 0 VALUE { IF(V(UPWM_U16_CLO_8) <0.1 |
+  V(UPWM_U16_BRI_8)<0.1, -0.00001,  
+ +IF(V(UPWM_U16_CLO_8)>254.5 &
+  V(UPWM_U16_BRI_8)>254.5,1.0001,V(UPWM_U16_PRE_PWM)))   }
E_UPWM_U16_ABM5         UPWM_U16_CLO_8 0 VALUE { IF(V(LED_BANK_EN5) <
+  0.5,V(COLOR15),V(BANK_A_COLOR))    }
E_UPWM_U16_ABM7         UPWM_U16_CLO_12BITS 0 VALUE {
+  V(UPWM_U16_CLO_8)*16+floor(V(UPWM_U16_CLO_8)/16)    }
X_UPWM_U16_U1         UPWM_U16_BRI_8 0 UPWM_U16_BRIGH_LOG_12BITS 0
+  ETABLE_8_TO_12BIT 
E_UPWM_U16_ABM9         UPWM_U16_BRIGH_12BITS 0 VALUE { IF(V(LOG_SCALE_EN) >
+  0.5,V(UPWM_U16_BRIGH_LOG_12BITS),V(UPWM_U16_BRIGH_LINEAR_12BITS))    }
E_UPWM_U16_ABM12         UPWM_U16_OUT_9BITS 0 VALUE {
+  floor(V(UPWM_U16_OUT_12BITS)/8)    }
E_UPWM_U16_ABM8         UPWM_U16_BRIGH_LINEAR_12BITS 0 VALUE {
+  V(UPWM_U16_BRI_8)*16+floor(V(UPWM_U16_BRI_8)/16)    }
E_UPWM_U16_ABM6         UPWM_U16_BRI_8 0 VALUE { IF(V(LED_BANK_EN5) <
+  0.5,V(BRIGHT5),V(BANK_BRIGHTNESS))    }
E_UPWM_U16_ABM11         UPWM_U16_PRE_PWM 0 VALUE { IF(V(PWM_DITHERING_EN)
+  <0.5, V(UPWM_U16_OUT_12BITS)/4095,  
+ +(V(UPWM_U16_OUT_9BITS)+V(UPWM_U16_OUT_3BITS_DTHR)/8)/512)   }
E_UPWM_U16_ABM10         UPWM_U16_OUT_12BITS 0 VALUE {
+  floor((V(UPWM_U16_CLO_12BITS)*V(UPWM_U16_BRIGH_12BITS))/4096)    }
E_UPWM_U26_ABM13         UPWM_U26_OUT_3BITS_DTHR 0 VALUE {
+  V(UPWM_U26_OUT_12BITS)-8*V(UPWM_U26_OUT_9BITS)    }
E_UPWM_U26_ABM14         UPWM_PWM_VAL25 0 VALUE { IF(V(UPWM_U26_CLO_8) <0.1 |
+  V(UPWM_U26_BRI_8)<0.1, -0.00001,  
+ +IF(V(UPWM_U26_CLO_8)>254.5 &
+  V(UPWM_U26_BRI_8)>254.5,1.0001,V(UPWM_U26_PRE_PWM)))   }
E_UPWM_U26_ABM5         UPWM_U26_CLO_8 0 VALUE { IF(V(LED_BANK_EN8) <
+  0.5,V(COLOR25),V(BANK_B_COLOR))    }
E_UPWM_U26_ABM7         UPWM_U26_CLO_12BITS 0 VALUE {
+  V(UPWM_U26_CLO_8)*16+floor(V(UPWM_U26_CLO_8)/16)    }
X_UPWM_U26_U1         UPWM_U26_BRI_8 0 UPWM_U26_BRIGH_LOG_12BITS 0
+  ETABLE_8_TO_12BIT 
E_UPWM_U26_ABM9         UPWM_U26_BRIGH_12BITS 0 VALUE { IF(V(LOG_SCALE_EN) >
+  0.5,V(UPWM_U26_BRIGH_LOG_12BITS),V(UPWM_U26_BRIGH_LINEAR_12BITS))    }
E_UPWM_U26_ABM12         UPWM_U26_OUT_9BITS 0 VALUE {
+  floor(V(UPWM_U26_OUT_12BITS)/8)    }
E_UPWM_U26_ABM8         UPWM_U26_BRIGH_LINEAR_12BITS 0 VALUE {
+  V(UPWM_U26_BRI_8)*16+floor(V(UPWM_U26_BRI_8)/16)    }
E_UPWM_U26_ABM6         UPWM_U26_BRI_8 0 VALUE { IF(V(LED_BANK_EN8) <
+  0.5,V(BRIGHT8),V(BANK_BRIGHTNESS))    }
E_UPWM_U26_ABM11         UPWM_U26_PRE_PWM 0 VALUE { IF(V(PWM_DITHERING_EN)
+  <0.5, V(UPWM_U26_OUT_12BITS)/4095,  
+ +(V(UPWM_U26_OUT_9BITS)+V(UPWM_U26_OUT_3BITS_DTHR)/8)/512)   }
E_UPWM_U26_ABM10         UPWM_U26_OUT_12BITS 0 VALUE {
+  floor((V(UPWM_U26_CLO_12BITS)*V(UPWM_U26_BRIGH_12BITS))/4096)    }
E_UPWM_U4_ABM13         UPWM_U4_OUT_3BITS_DTHR 0 VALUE {
+  V(UPWM_U4_OUT_12BITS)-8*V(UPWM_U4_OUT_9BITS)    }
E_UPWM_U4_ABM14         UPWM_PWM_VAL3 0 VALUE { IF(V(UPWM_U4_CLO_8) <0.1 |
+  V(UPWM_U4_BRI_8)<0.1, -0.00001,  
+ +IF(V(UPWM_U4_CLO_8)>254.5 &
+  V(UPWM_U4_BRI_8)>254.5,1.0001,V(UPWM_U4_PRE_PWM)))   }
E_UPWM_U4_ABM5         UPWM_U4_CLO_8 0 VALUE { IF(V(LED_BANK_EN1) <
+  0.5,V(COLOR3),V(BANK_A_COLOR))    }
E_UPWM_U4_ABM7         UPWM_U4_CLO_12BITS 0 VALUE {
+  V(UPWM_U4_CLO_8)*16+floor(V(UPWM_U4_CLO_8)/16)    }
X_UPWM_U4_U1         UPWM_U4_BRI_8 0 UPWM_U4_BRIGH_LOG_12BITS 0
+  ETABLE_8_TO_12BIT 
E_UPWM_U4_ABM9         UPWM_U4_BRIGH_12BITS 0 VALUE { IF(V(LOG_SCALE_EN) >
+  0.5,V(UPWM_U4_BRIGH_LOG_12BITS),V(UPWM_U4_BRIGH_LINEAR_12BITS))    }
E_UPWM_U4_ABM12         UPWM_U4_OUT_9BITS 0 VALUE {
+  floor(V(UPWM_U4_OUT_12BITS)/8)    }
E_UPWM_U4_ABM8         UPWM_U4_BRIGH_LINEAR_12BITS 0 VALUE {
+  V(UPWM_U4_BRI_8)*16+floor(V(UPWM_U4_BRI_8)/16)    }
E_UPWM_U4_ABM6         UPWM_U4_BRI_8 0 VALUE { IF(V(LED_BANK_EN1) <
+  0.5,V(BRIGHT1),V(BANK_BRIGHTNESS))    }
E_UPWM_U4_ABM11         UPWM_U4_PRE_PWM 0 VALUE { IF(V(PWM_DITHERING_EN) <0.5,
+  V(UPWM_U4_OUT_12BITS)/4095,  
+ +(V(UPWM_U4_OUT_9BITS)+V(UPWM_U4_OUT_3BITS_DTHR)/8)/512)   }
E_UPWM_U4_ABM10         UPWM_U4_OUT_12BITS 0 VALUE {
+  floor((V(UPWM_U4_CLO_12BITS)*V(UPWM_U4_BRIGH_12BITS))/4096)    }
E_UPWM_UPWM0_ABM2         PWM1 0 VALUE { IF((V(UPWM_UPWM0_RAMP) >=
+  0.5-V(UPWM_PWM_VAL1)/2) & V(INIT) > 0.5 &  
+ (V(UPWM_UPWM0_RAMP) <= 0.5+V(UPWM_PWM_VAL1)/2),1,0)   }
E_UPWM_UPWM0_ABM1         PWM0 0 VALUE { IF(V(UPWM_PWM_VAL0) >=
+  V(UPWM_UPWM0_RAMP) & V(INIT) > 0.5,1,0)    }
X_UPWM_UPWM0_U69         0 UPWM_UPWM0_PRE_RAMP d_d1 PARAMS:
X_UPWM_UPWM0_U25         INIT UPWM_UPWM0_N16753948 UPWM_UPWM0_CTRL
+  AND2_BASIC_GEN PARAMS: VDD=1 VSS=0 VTHRESH=500E-3
V_UPWM_UPWM0_V44         UPWM_UPWM0_N16747357 0 1
R_UPWM_UPWM0_R3         0 UPWM_UPWM0_PRE_RAMP  1G  
E_UPWM_UPWM0_ABM3         PWM2 0 VALUE { IF(V(UPWM_UPWM0_RAMP) >=
+  1-V(UPWM_PWM_VAL2) & V(INIT)>0.5,1,0)    }
X_UPWM_UPWM0_U68         UPWM_UPWM0_PRE_RAMP UPWM_UPWM0_N16747357 d_d1 PARAMS:
C_UPWM_UPWM0_C1         0 UPWM_UPWM0_PRE_RAMP  1n  TC=0,0 
X_UPWM_UPWM0_U44         UPWM_UPWM0_N16754427 UPWM_UPWM0_N16754549 one_shot
+  PARAMS:  T=10  
X_UPWM_UPWM0_U34         UPWM_UPWM0_N16754549 UPWM_UPWM0_N16753948
+  INV_BASIC_GEN PARAMS: VDD=1 VSS=0 VTHRESH=500E-3
G_UPWM_UPWM0_ABMII2         UPWM_UPWM0_N16747357 UPWM_UPWM0_PRE_RAMP VALUE {
+  IF(V(UPWM_UPWM0_CTRL) > 0.5,29u,0)    }
E_UPWM_UPWM0_ABM4         UPWM_UPWM0_N16754427 0 VALUE {
+  IF(V(UPWM_UPWM0_PRE_RAMP) >=1,1,0)    }
E_UPWM_UPWM0_ABM5         UPWM_UPWM0_RAMP 0 VALUE {
+  LIMIT(V(UPWM_UPWM0_PRE_RAMP),0,1)    }
G_UPWM_UPWM0_ABMII3         UPWM_UPWM0_PRE_RAMP 0 VALUE { IF(V(UPWM_UPWM0_CTRL)
+  < 0.5,1,0)    }
E_UPWM_U17_ABM13         UPWM_U17_OUT_3BITS_DTHR 0 VALUE {
+  V(UPWM_U17_OUT_12BITS)-8*V(UPWM_U17_OUT_9BITS)    }
E_UPWM_U17_ABM14         UPWM_PWM_VAL16 0 VALUE { IF(V(UPWM_U17_CLO_8) <0.1 |
+  V(UPWM_U17_BRI_8)<0.1, -0.00001,  
+ +IF(V(UPWM_U17_CLO_8)>254.5 &
+  V(UPWM_U17_BRI_8)>254.5,1.0001,V(UPWM_U17_PRE_PWM)))   }
E_UPWM_U17_ABM5         UPWM_U17_CLO_8 0 VALUE { IF(V(LED_BANK_EN5) <
+  0.5,V(COLOR16),V(BANK_B_COLOR))    }
E_UPWM_U17_ABM7         UPWM_U17_CLO_12BITS 0 VALUE {
+  V(UPWM_U17_CLO_8)*16+floor(V(UPWM_U17_CLO_8)/16)    }
X_UPWM_U17_U1         UPWM_U17_BRI_8 0 UPWM_U17_BRIGH_LOG_12BITS 0
+  ETABLE_8_TO_12BIT 
E_UPWM_U17_ABM9         UPWM_U17_BRIGH_12BITS 0 VALUE { IF(V(LOG_SCALE_EN) >
+  0.5,V(UPWM_U17_BRIGH_LOG_12BITS),V(UPWM_U17_BRIGH_LINEAR_12BITS))    }
E_UPWM_U17_ABM12         UPWM_U17_OUT_9BITS 0 VALUE {
+  floor(V(UPWM_U17_OUT_12BITS)/8)    }
E_UPWM_U17_ABM8         UPWM_U17_BRIGH_LINEAR_12BITS 0 VALUE {
+  V(UPWM_U17_BRI_8)*16+floor(V(UPWM_U17_BRI_8)/16)    }
E_UPWM_U17_ABM6         UPWM_U17_BRI_8 0 VALUE { IF(V(LED_BANK_EN5) <
+  0.5,V(BRIGHT5),V(BANK_BRIGHTNESS))    }
E_UPWM_U17_ABM11         UPWM_U17_PRE_PWM 0 VALUE { IF(V(PWM_DITHERING_EN)
+  <0.5, V(UPWM_U17_OUT_12BITS)/4095,  
+ +(V(UPWM_U17_OUT_9BITS)+V(UPWM_U17_OUT_3BITS_DTHR)/8)/512)   }
E_UPWM_U17_ABM10         UPWM_U17_OUT_12BITS 0 VALUE {
+  floor((V(UPWM_U17_CLO_12BITS)*V(UPWM_U17_BRIGH_12BITS))/4096)    }
E_UPWM_U5_ABM13         UPWM_U5_OUT_3BITS_DTHR 0 VALUE {
+  V(UPWM_U5_OUT_12BITS)-8*V(UPWM_U5_OUT_9BITS)    }
E_UPWM_U5_ABM14         UPWM_PWM_VAL4 0 VALUE { IF(V(UPWM_U5_CLO_8) <0.1 |
+  V(UPWM_U5_BRI_8)<0.1, -0.00001,  
+ +IF(V(UPWM_U5_CLO_8)>254.5 &
+  V(UPWM_U5_BRI_8)>254.5,1.0001,V(UPWM_U5_PRE_PWM)))   }
E_UPWM_U5_ABM5         UPWM_U5_CLO_8 0 VALUE { IF(V(LED_BANK_EN1) <
+  0.5,V(COLOR4),V(BANK_B_COLOR))    }
E_UPWM_U5_ABM7         UPWM_U5_CLO_12BITS 0 VALUE {
+  V(UPWM_U5_CLO_8)*16+floor(V(UPWM_U5_CLO_8)/16)    }
X_UPWM_U5_U1         UPWM_U5_BRI_8 0 UPWM_U5_BRIGH_LOG_12BITS 0
+  ETABLE_8_TO_12BIT 
E_UPWM_U5_ABM9         UPWM_U5_BRIGH_12BITS 0 VALUE { IF(V(LOG_SCALE_EN) >
+  0.5,V(UPWM_U5_BRIGH_LOG_12BITS),V(UPWM_U5_BRIGH_LINEAR_12BITS))    }
E_UPWM_U5_ABM12         UPWM_U5_OUT_9BITS 0 VALUE {
+  floor(V(UPWM_U5_OUT_12BITS)/8)    }
E_UPWM_U5_ABM8         UPWM_U5_BRIGH_LINEAR_12BITS 0 VALUE {
+  V(UPWM_U5_BRI_8)*16+floor(V(UPWM_U5_BRI_8)/16)    }
E_UPWM_U5_ABM6         UPWM_U5_BRI_8 0 VALUE { IF(V(LED_BANK_EN1) <
+  0.5,V(BRIGHT1),V(BANK_BRIGHTNESS))    }
E_UPWM_U5_ABM11         UPWM_U5_PRE_PWM 0 VALUE { IF(V(PWM_DITHERING_EN) <0.5,
+  V(UPWM_U5_OUT_12BITS)/4095,  
+ +(V(UPWM_U5_OUT_9BITS)+V(UPWM_U5_OUT_3BITS_DTHR)/8)/512)   }
E_UPWM_U5_ABM10         UPWM_U5_OUT_12BITS 0 VALUE {
+  floor((V(UPWM_U5_CLO_12BITS)*V(UPWM_U5_BRIGH_12BITS))/4096)    }
E_UPWM_U1_ABM13         UPWM_U1_OUT_3BITS_DTHR 0 VALUE {
+  V(UPWM_U1_OUT_12BITS)-8*V(UPWM_U1_OUT_9BITS)    }
E_UPWM_U1_ABM14         UPWM_PWM_VAL0 0 VALUE { IF(V(UPWM_U1_CLO_8) <0.1 |
+  V(UPWM_U1_BRI_8)<0.1, -0.00001,  
+ +IF(V(UPWM_U1_CLO_8)>254.5 &
+  V(UPWM_U1_BRI_8)>254.5,1.0001,V(UPWM_U1_PRE_PWM)))   }
E_UPWM_U1_ABM5         UPWM_U1_CLO_8 0 VALUE { IF(V(LED_BANK_EN0) <
+  0.5,V(COLOR0),V(BANK_A_COLOR))    }
E_UPWM_U1_ABM7         UPWM_U1_CLO_12BITS 0 VALUE {
+  V(UPWM_U1_CLO_8)*16+floor(V(UPWM_U1_CLO_8)/16)    }
X_UPWM_U1_U1         UPWM_U1_BRI_8 0 UPWM_U1_BRIGH_LOG_12BITS 0
+  ETABLE_8_TO_12BIT 
E_UPWM_U1_ABM9         UPWM_U1_BRIGH_12BITS 0 VALUE { IF(V(LOG_SCALE_EN) >
+  0.5,V(UPWM_U1_BRIGH_LOG_12BITS),V(UPWM_U1_BRIGH_LINEAR_12BITS))    }
E_UPWM_U1_ABM12         UPWM_U1_OUT_9BITS 0 VALUE {
+  floor(V(UPWM_U1_OUT_12BITS)/8)    }
E_UPWM_U1_ABM8         UPWM_U1_BRIGH_LINEAR_12BITS 0 VALUE {
+  V(UPWM_U1_BRI_8)*16+floor(V(UPWM_U1_BRI_8)/16)    }
E_UPWM_U1_ABM6         UPWM_U1_BRI_8 0 VALUE { IF(V(LED_BANK_EN0) <
+  0.5,V(BRIGHT0),V(BANK_BRIGHTNESS))    }
E_UPWM_U1_ABM11         UPWM_U1_PRE_PWM 0 VALUE { IF(V(PWM_DITHERING_EN) <0.5,
+  V(UPWM_U1_OUT_12BITS)/4095,  
+ +(V(UPWM_U1_OUT_9BITS)+V(UPWM_U1_OUT_3BITS_DTHR)/8)/512)   }
E_UPWM_U1_ABM10         UPWM_U1_OUT_12BITS 0 VALUE {
+  floor((V(UPWM_U1_CLO_12BITS)*V(UPWM_U1_BRIGH_12BITS))/4096)    }
E_UPWM_U27_ABM13         UPWM_U27_OUT_3BITS_DTHR 0 VALUE {
+  V(UPWM_U27_OUT_12BITS)-8*V(UPWM_U27_OUT_9BITS)    }
E_UPWM_U27_ABM14         UPWM_PWM_VAL26 0 VALUE { IF(V(UPWM_U27_CLO_8) <0.1 |
+  V(UPWM_U27_BRI_8)<0.1, -0.00001,  
+ +IF(V(UPWM_U27_CLO_8)>254.5 &
+  V(UPWM_U27_BRI_8)>254.5,1.0001,V(UPWM_U27_PRE_PWM)))   }
E_UPWM_U27_ABM5         UPWM_U27_CLO_8 0 VALUE { IF(V(LED_BANK_EN8) <
+  0.5,V(COLOR26),V(BANK_C_COLOR))    }
E_UPWM_U27_ABM7         UPWM_U27_CLO_12BITS 0 VALUE {
+  V(UPWM_U27_CLO_8)*16+floor(V(UPWM_U27_CLO_8)/16)    }
X_UPWM_U27_U1         UPWM_U27_BRI_8 0 UPWM_U27_BRIGH_LOG_12BITS 0
+  ETABLE_8_TO_12BIT 
E_UPWM_U27_ABM9         UPWM_U27_BRIGH_12BITS 0 VALUE { IF(V(LOG_SCALE_EN) >
+  0.5,V(UPWM_U27_BRIGH_LOG_12BITS),V(UPWM_U27_BRIGH_LINEAR_12BITS))    }
E_UPWM_U27_ABM12         UPWM_U27_OUT_9BITS 0 VALUE {
+  floor(V(UPWM_U27_OUT_12BITS)/8)    }
E_UPWM_U27_ABM8         UPWM_U27_BRIGH_LINEAR_12BITS 0 VALUE {
+  V(UPWM_U27_BRI_8)*16+floor(V(UPWM_U27_BRI_8)/16)    }
E_UPWM_U27_ABM6         UPWM_U27_BRI_8 0 VALUE { IF(V(LED_BANK_EN8) <
+  0.5,V(BRIGHT8),V(BANK_BRIGHTNESS))    }
E_UPWM_U27_ABM11         UPWM_U27_PRE_PWM 0 VALUE { IF(V(PWM_DITHERING_EN)
+  <0.5, V(UPWM_U27_OUT_12BITS)/4095,  
+ +(V(UPWM_U27_OUT_9BITS)+V(UPWM_U27_OUT_3BITS_DTHR)/8)/512)   }
E_UPWM_U27_ABM10         UPWM_U27_OUT_12BITS 0 VALUE {
+  floor((V(UPWM_U27_CLO_12BITS)*V(UPWM_U27_BRIGH_12BITS))/4096)    }
E_UPWM_U18_ABM13         UPWM_U18_OUT_3BITS_DTHR 0 VALUE {
+  V(UPWM_U18_OUT_12BITS)-8*V(UPWM_U18_OUT_9BITS)    }
E_UPWM_U18_ABM14         UPWM_PWM_VAL17 0 VALUE { IF(V(UPWM_U18_CLO_8) <0.1 |
+  V(UPWM_U18_BRI_8)<0.1, -0.00001,  
+ +IF(V(UPWM_U18_CLO_8)>254.5 &
+  V(UPWM_U18_BRI_8)>254.5,1.0001,V(UPWM_U18_PRE_PWM)))   }
E_UPWM_U18_ABM5         UPWM_U18_CLO_8 0 VALUE { IF(V(LED_BANK_EN5) <
+  0.5,V(COLOR17),V(BANK_C_COLOR))    }
E_UPWM_U18_ABM7         UPWM_U18_CLO_12BITS 0 VALUE {
+  V(UPWM_U18_CLO_8)*16+floor(V(UPWM_U18_CLO_8)/16)    }
X_UPWM_U18_U1         UPWM_U18_BRI_8 0 UPWM_U18_BRIGH_LOG_12BITS 0
+  ETABLE_8_TO_12BIT 
E_UPWM_U18_ABM9         UPWM_U18_BRIGH_12BITS 0 VALUE { IF(V(LOG_SCALE_EN) >
+  0.5,V(UPWM_U18_BRIGH_LOG_12BITS),V(UPWM_U18_BRIGH_LINEAR_12BITS))    }
E_UPWM_U18_ABM12         UPWM_U18_OUT_9BITS 0 VALUE {
+  floor(V(UPWM_U18_OUT_12BITS)/8)    }
E_UPWM_U18_ABM8         UPWM_U18_BRIGH_LINEAR_12BITS 0 VALUE {
+  V(UPWM_U18_BRI_8)*16+floor(V(UPWM_U18_BRI_8)/16)    }
E_UPWM_U18_ABM6         UPWM_U18_BRI_8 0 VALUE { IF(V(LED_BANK_EN5) <
+  0.5,V(BRIGHT5),V(BANK_BRIGHTNESS))    }
E_UPWM_U18_ABM11         UPWM_U18_PRE_PWM 0 VALUE { IF(V(PWM_DITHERING_EN)
+  <0.5, V(UPWM_U18_OUT_12BITS)/4095,  
+ +(V(UPWM_U18_OUT_9BITS)+V(UPWM_U18_OUT_3BITS_DTHR)/8)/512)   }
E_UPWM_U18_ABM10         UPWM_U18_OUT_12BITS 0 VALUE {
+  floor((V(UPWM_U18_CLO_12BITS)*V(UPWM_U18_BRIGH_12BITS))/4096)    }
E_UPWM_U34_ABM13         UPWM_U34_OUT_3BITS_DTHR 0 VALUE {
+  V(UPWM_U34_OUT_12BITS)-8*V(UPWM_U34_OUT_9BITS)    }
E_UPWM_U34_ABM14         UPWM_PWM_VAL33 0 VALUE { IF(V(UPWM_U34_CLO_8) <0.1 |
+  V(UPWM_U34_BRI_8)<0.1, -0.00001,  
+ +IF(V(UPWM_U34_CLO_8)>254.5 &
+  V(UPWM_U34_BRI_8)>254.5,1.0001,V(UPWM_U34_PRE_PWM)))   }
E_UPWM_U34_ABM5         UPWM_U34_CLO_8 0 VALUE { IF(V(LED_BANK_EN11) <
+  0.5,V(COLOR33),V(BANK_A_COLOR))    }
E_UPWM_U34_ABM7         UPWM_U34_CLO_12BITS 0 VALUE {
+  V(UPWM_U34_CLO_8)*16+floor(V(UPWM_U34_CLO_8)/16)    }
X_UPWM_U34_U1         UPWM_U34_BRI_8 0 UPWM_U34_BRIGH_LOG_12BITS 0
+  ETABLE_8_TO_12BIT 
E_UPWM_U34_ABM9         UPWM_U34_BRIGH_12BITS 0 VALUE { IF(V(LOG_SCALE_EN) >
+  0.5,V(UPWM_U34_BRIGH_LOG_12BITS),V(UPWM_U34_BRIGH_LINEAR_12BITS))    }
E_UPWM_U34_ABM12         UPWM_U34_OUT_9BITS 0 VALUE {
+  floor(V(UPWM_U34_OUT_12BITS)/8)    }
E_UPWM_U34_ABM8         UPWM_U34_BRIGH_LINEAR_12BITS 0 VALUE {
+  V(UPWM_U34_BRI_8)*16+floor(V(UPWM_U34_BRI_8)/16)    }
E_UPWM_U34_ABM6         UPWM_U34_BRI_8 0 VALUE { IF(V(LED_BANK_EN11) <
+  0.5,V(BRIGHT11),V(BANK_BRIGHTNESS))    }
E_UPWM_U34_ABM11         UPWM_U34_PRE_PWM 0 VALUE { IF(V(PWM_DITHERING_EN)
+  <0.5, V(UPWM_U34_OUT_12BITS)/4095,  
+ +(V(UPWM_U34_OUT_9BITS)+V(UPWM_U34_OUT_3BITS_DTHR)/8)/512)   }
E_UPWM_U34_ABM10         UPWM_U34_OUT_12BITS 0 VALUE {
+  floor((V(UPWM_U34_CLO_12BITS)*V(UPWM_U34_BRIGH_12BITS))/4096)    }
E_UPWM_U6_ABM13         UPWM_U6_OUT_3BITS_DTHR 0 VALUE {
+  V(UPWM_U6_OUT_12BITS)-8*V(UPWM_U6_OUT_9BITS)    }
E_UPWM_U6_ABM14         UPWM_PWM_VAL5 0 VALUE { IF(V(UPWM_U6_CLO_8) <0.1 |
+  V(UPWM_U6_BRI_8)<0.1, -0.00001,  
+ +IF(V(UPWM_U6_CLO_8)>254.5 &
+  V(UPWM_U6_BRI_8)>254.5,1.0001,V(UPWM_U6_PRE_PWM)))   }
E_UPWM_U6_ABM5         UPWM_U6_CLO_8 0 VALUE { IF(V(LED_BANK_EN1) <
+  0.5,V(COLOR5),V(BANK_C_COLOR))    }
E_UPWM_U6_ABM7         UPWM_U6_CLO_12BITS 0 VALUE {
+  V(UPWM_U6_CLO_8)*16+floor(V(UPWM_U6_CLO_8)/16)    }
X_UPWM_U6_U1         UPWM_U6_BRI_8 0 UPWM_U6_BRIGH_LOG_12BITS 0
+  ETABLE_8_TO_12BIT 
E_UPWM_U6_ABM9         UPWM_U6_BRIGH_12BITS 0 VALUE { IF(V(LOG_SCALE_EN) >
+  0.5,V(UPWM_U6_BRIGH_LOG_12BITS),V(UPWM_U6_BRIGH_LINEAR_12BITS))    }
E_UPWM_U6_ABM12         UPWM_U6_OUT_9BITS 0 VALUE {
+  floor(V(UPWM_U6_OUT_12BITS)/8)    }
E_UPWM_U6_ABM8         UPWM_U6_BRIGH_LINEAR_12BITS 0 VALUE {
+  V(UPWM_U6_BRI_8)*16+floor(V(UPWM_U6_BRI_8)/16)    }
E_UPWM_U6_ABM6         UPWM_U6_BRI_8 0 VALUE { IF(V(LED_BANK_EN1) <
+  0.5,V(BRIGHT1),V(BANK_BRIGHTNESS))    }
E_UPWM_U6_ABM11         UPWM_U6_PRE_PWM 0 VALUE { IF(V(PWM_DITHERING_EN) <0.5,
+  V(UPWM_U6_OUT_12BITS)/4095,  
+ +(V(UPWM_U6_OUT_9BITS)+V(UPWM_U6_OUT_3BITS_DTHR)/8)/512)   }
E_UPWM_U6_ABM10         UPWM_U6_OUT_12BITS 0 VALUE {
+  floor((V(UPWM_U6_CLO_12BITS)*V(UPWM_U6_BRIGH_12BITS))/4096)    }
E_UPWM_U35_ABM13         UPWM_U35_OUT_3BITS_DTHR 0 VALUE {
+  V(UPWM_U35_OUT_12BITS)-8*V(UPWM_U35_OUT_9BITS)    }
E_UPWM_U35_ABM14         UPWM_PWM_VAL34 0 VALUE { IF(V(UPWM_U35_CLO_8) <0.1 |
+  V(UPWM_U35_BRI_8)<0.1, -0.00001,  
+ +IF(V(UPWM_U35_CLO_8)>254.5 &
+  V(UPWM_U35_BRI_8)>254.5,1.0001,V(UPWM_U35_PRE_PWM)))   }
E_UPWM_U35_ABM5         UPWM_U35_CLO_8 0 VALUE { IF(V(LED_BANK_EN11) <
+  0.5,V(COLOR34),V(BANK_B_COLOR))    }
E_UPWM_U35_ABM7         UPWM_U35_CLO_12BITS 0 VALUE {
+  V(UPWM_U35_CLO_8)*16+floor(V(UPWM_U35_CLO_8)/16)    }
X_UPWM_U35_U1         UPWM_U35_BRI_8 0 UPWM_U35_BRIGH_LOG_12BITS 0
+  ETABLE_8_TO_12BIT 
E_UPWM_U35_ABM9         UPWM_U35_BRIGH_12BITS 0 VALUE { IF(V(LOG_SCALE_EN) >
+  0.5,V(UPWM_U35_BRIGH_LOG_12BITS),V(UPWM_U35_BRIGH_LINEAR_12BITS))    }
E_UPWM_U35_ABM12         UPWM_U35_OUT_9BITS 0 VALUE {
+  floor(V(UPWM_U35_OUT_12BITS)/8)    }
E_UPWM_U35_ABM8         UPWM_U35_BRIGH_LINEAR_12BITS 0 VALUE {
+  V(UPWM_U35_BRI_8)*16+floor(V(UPWM_U35_BRI_8)/16)    }
E_UPWM_U35_ABM6         UPWM_U35_BRI_8 0 VALUE { IF(V(LED_BANK_EN11) <
+  0.5,V(BRIGHT11),V(BANK_BRIGHTNESS))    }
E_UPWM_U35_ABM11         UPWM_U35_PRE_PWM 0 VALUE { IF(V(PWM_DITHERING_EN)
+  <0.5, V(UPWM_U35_OUT_12BITS)/4095,  
+ +(V(UPWM_U35_OUT_9BITS)+V(UPWM_U35_OUT_3BITS_DTHR)/8)/512)   }
E_UPWM_U35_ABM10         UPWM_U35_OUT_12BITS 0 VALUE {
+  floor((V(UPWM_U35_CLO_12BITS)*V(UPWM_U35_BRIGH_12BITS))/4096)    }
E_UPWM_UPWM11_ABM2         PWM34 0 VALUE { IF((V(UPWM_UPWM11_RAMP) >=
+  0.5-V(UPWM_PWM_VAL34)/2) & V(INIT) > 0.5 &  
+ (V(UPWM_UPWM11_RAMP) <= 0.5+V(UPWM_PWM_VAL34)/2),1,0)   }
E_UPWM_UPWM11_ABM1         PWM33 0 VALUE { IF(V(UPWM_PWM_VAL33) >=
+  V(UPWM_UPWM11_RAMP) & V(INIT) > 0.5,1,0)    }
X_UPWM_UPWM11_U69         0 UPWM_UPWM11_PRE_RAMP d_d1 PARAMS:
X_UPWM_UPWM11_U25         INIT UPWM_UPWM11_N16753948 UPWM_UPWM11_CTRL
+  AND2_BASIC_GEN PARAMS: VDD=1 VSS=0 VTHRESH=500E-3
V_UPWM_UPWM11_V44         UPWM_UPWM11_N16747357 0 1
R_UPWM_UPWM11_R3         0 UPWM_UPWM11_PRE_RAMP  1G  
E_UPWM_UPWM11_ABM3         PWM35 0 VALUE { IF(V(UPWM_UPWM11_RAMP) >=
+  1-V(UPWM_PWM_VAL35) & V(INIT)>0.5,1,0)    }
X_UPWM_UPWM11_U68         UPWM_UPWM11_PRE_RAMP UPWM_UPWM11_N16747357 d_d1
+  PARAMS:
C_UPWM_UPWM11_C1         0 UPWM_UPWM11_PRE_RAMP  1n  TC=0,0 
X_UPWM_UPWM11_U44         UPWM_UPWM11_N16754427 UPWM_UPWM11_N16754549 one_shot
+  PARAMS:  T=10  
X_UPWM_UPWM11_U34         UPWM_UPWM11_N16754549 UPWM_UPWM11_N16753948
+  INV_BASIC_GEN PARAMS: VDD=1 VSS=0 VTHRESH=500E-3
G_UPWM_UPWM11_ABMII2         UPWM_UPWM11_N16747357 UPWM_UPWM11_PRE_RAMP VALUE {
+  IF(V(UPWM_UPWM11_CTRL) > 0.5,29u,0)    }
E_UPWM_UPWM11_ABM4         UPWM_UPWM11_N16754427 0 VALUE {
+  IF(V(UPWM_UPWM11_PRE_RAMP) >=1,1,0)    }
E_UPWM_UPWM11_ABM5         UPWM_UPWM11_RAMP 0 VALUE {
+  LIMIT(V(UPWM_UPWM11_PRE_RAMP),0,1)    }
G_UPWM_UPWM11_ABMII3         UPWM_UPWM11_PRE_RAMP 0 VALUE {
+  IF(V(UPWM_UPWM11_CTRL) < 0.5,1,0)    }
E_UPWM_U36_ABM13         UPWM_U36_OUT_3BITS_DTHR 0 VALUE {
+  V(UPWM_U36_OUT_12BITS)-8*V(UPWM_U36_OUT_9BITS)    }
E_UPWM_U36_ABM14         UPWM_PWM_VAL35 0 VALUE { IF(V(UPWM_U36_CLO_8) <0.1 |
+  V(UPWM_U36_BRI_8)<0.1, -0.00001,  
+ +IF(V(UPWM_U36_CLO_8)>254.5 &
+  V(UPWM_U36_BRI_8)>254.5,1.0001,V(UPWM_U36_PRE_PWM)))   }
E_UPWM_U36_ABM5         UPWM_U36_CLO_8 0 VALUE { IF(V(LED_BANK_EN11) <
+  0.5,V(COLOR35),V(BANK_C_COLOR))    }
E_UPWM_U36_ABM7         UPWM_U36_CLO_12BITS 0 VALUE {
+  V(UPWM_U36_CLO_8)*16+floor(V(UPWM_U36_CLO_8)/16)    }
X_UPWM_U36_U1         UPWM_U36_BRI_8 0 UPWM_U36_BRIGH_LOG_12BITS 0
+  ETABLE_8_TO_12BIT 
E_UPWM_U36_ABM9         UPWM_U36_BRIGH_12BITS 0 VALUE { IF(V(LOG_SCALE_EN) >
+  0.5,V(UPWM_U36_BRIGH_LOG_12BITS),V(UPWM_U36_BRIGH_LINEAR_12BITS))    }
E_UPWM_U36_ABM12         UPWM_U36_OUT_9BITS 0 VALUE {
+  floor(V(UPWM_U36_OUT_12BITS)/8)    }
E_UPWM_U36_ABM8         UPWM_U36_BRIGH_LINEAR_12BITS 0 VALUE {
+  V(UPWM_U36_BRI_8)*16+floor(V(UPWM_U36_BRI_8)/16)    }
E_UPWM_U36_ABM6         UPWM_U36_BRI_8 0 VALUE { IF(V(LED_BANK_EN11) <
+  0.5,V(BRIGHT11),V(BANK_BRIGHTNESS))    }
E_UPWM_U36_ABM11         UPWM_U36_PRE_PWM 0 VALUE { IF(V(PWM_DITHERING_EN)
+  <0.5, V(UPWM_U36_OUT_12BITS)/4095,  
+ +(V(UPWM_U36_OUT_9BITS)+V(UPWM_U36_OUT_3BITS_DTHR)/8)/512)   }
E_UPWM_U36_ABM10         UPWM_U36_OUT_12BITS 0 VALUE {
+  floor((V(UPWM_U36_CLO_12BITS)*V(UPWM_U36_BRIGH_12BITS))/4096)    }
E_UPWM_UPWM1_ABM2         PWM4 0 VALUE { IF((V(UPWM_UPWM1_RAMP) >=
+  0.5-V(UPWM_PWM_VAL4)/2) & V(INIT) > 0.5 &  
+ (V(UPWM_UPWM1_RAMP) <= 0.5+V(UPWM_PWM_VAL4)/2),1,0)   }
E_UPWM_UPWM1_ABM1         PWM3 0 VALUE { IF(V(UPWM_PWM_VAL3) >=
+  V(UPWM_UPWM1_RAMP) & V(INIT) > 0.5,1,0)    }
X_UPWM_UPWM1_U69         0 UPWM_UPWM1_PRE_RAMP d_d1 PARAMS:
X_UPWM_UPWM1_U25         INIT UPWM_UPWM1_N16753948 UPWM_UPWM1_CTRL
+  AND2_BASIC_GEN PARAMS: VDD=1 VSS=0 VTHRESH=500E-3
V_UPWM_UPWM1_V44         UPWM_UPWM1_N16747357 0 1
R_UPWM_UPWM1_R3         0 UPWM_UPWM1_PRE_RAMP  1G  
E_UPWM_UPWM1_ABM3         PWM5 0 VALUE { IF(V(UPWM_UPWM1_RAMP) >=
+  1-V(UPWM_PWM_VAL5) & V(INIT)>0.5,1,0)    }
X_UPWM_UPWM1_U68         UPWM_UPWM1_PRE_RAMP UPWM_UPWM1_N16747357 d_d1 PARAMS:
C_UPWM_UPWM1_C1         0 UPWM_UPWM1_PRE_RAMP  1n  TC=0,0 
X_UPWM_UPWM1_U44         UPWM_UPWM1_N16754427 UPWM_UPWM1_N16754549 one_shot
+  PARAMS:  T=10  
X_UPWM_UPWM1_U34         UPWM_UPWM1_N16754549 UPWM_UPWM1_N16753948
+  INV_BASIC_GEN PARAMS: VDD=1 VSS=0 VTHRESH=500E-3
G_UPWM_UPWM1_ABMII2         UPWM_UPWM1_N16747357 UPWM_UPWM1_PRE_RAMP VALUE {
+  IF(V(UPWM_UPWM1_CTRL) > 0.5,29u,0)    }
E_UPWM_UPWM1_ABM4         UPWM_UPWM1_N16754427 0 VALUE {
+  IF(V(UPWM_UPWM1_PRE_RAMP) >=1,1,0)    }
E_UPWM_UPWM1_ABM5         UPWM_UPWM1_RAMP 0 VALUE {
+  LIMIT(V(UPWM_UPWM1_PRE_RAMP),0,1)    }
G_UPWM_UPWM1_ABMII3         UPWM_UPWM1_PRE_RAMP 0 VALUE { IF(V(UPWM_UPWM1_CTRL)
+  < 0.5,1,0)    }
E_UPWM_UPWM7_ABM2         PWM22 0 VALUE { IF((V(UPWM_UPWM7_RAMP) >=
+  0.5-V(UPWM_PWM_VAL22)/2) & V(INIT) > 0.5 &  
+ (V(UPWM_UPWM7_RAMP) <= 0.5+V(UPWM_PWM_VAL22)/2),1,0)   }
E_UPWM_UPWM7_ABM1         PWM21 0 VALUE { IF(V(UPWM_PWM_VAL21) >=
+  V(UPWM_UPWM7_RAMP) & V(INIT) > 0.5,1,0)    }
X_UPWM_UPWM7_U69         0 UPWM_UPWM7_PRE_RAMP d_d1 PARAMS:
X_UPWM_UPWM7_U25         INIT UPWM_UPWM7_N16753948 UPWM_UPWM7_CTRL
+  AND2_BASIC_GEN PARAMS: VDD=1 VSS=0 VTHRESH=500E-3
V_UPWM_UPWM7_V44         UPWM_UPWM7_N16747357 0 1
R_UPWM_UPWM7_R3         0 UPWM_UPWM7_PRE_RAMP  1G  
E_UPWM_UPWM7_ABM3         PWM23 0 VALUE { IF(V(UPWM_UPWM7_RAMP) >=
+  1-V(UPWM_PWM_VAL23) & V(INIT)>0.5,1,0)    }
X_UPWM_UPWM7_U68         UPWM_UPWM7_PRE_RAMP UPWM_UPWM7_N16747357 d_d1 PARAMS:
C_UPWM_UPWM7_C1         0 UPWM_UPWM7_PRE_RAMP  1n  TC=0,0 
X_UPWM_UPWM7_U44         UPWM_UPWM7_N16754427 UPWM_UPWM7_N16754549 one_shot
+  PARAMS:  T=10  
X_UPWM_UPWM7_U34         UPWM_UPWM7_N16754549 UPWM_UPWM7_N16753948
+  INV_BASIC_GEN PARAMS: VDD=1 VSS=0 VTHRESH=500E-3
G_UPWM_UPWM7_ABMII2         UPWM_UPWM7_N16747357 UPWM_UPWM7_PRE_RAMP VALUE {
+  IF(V(UPWM_UPWM7_CTRL) > 0.5,29u,0)    }
E_UPWM_UPWM7_ABM4         UPWM_UPWM7_N16754427 0 VALUE {
+  IF(V(UPWM_UPWM7_PRE_RAMP) >=1,1,0)    }
E_UPWM_UPWM7_ABM5         UPWM_UPWM7_RAMP 0 VALUE {
+  LIMIT(V(UPWM_UPWM7_PRE_RAMP),0,1)    }
G_UPWM_UPWM7_ABMII3         UPWM_UPWM7_PRE_RAMP 0 VALUE { IF(V(UPWM_UPWM7_CTRL)
+  < 0.5,1,0)    }
E_UPWM_U22_ABM13         UPWM_U22_OUT_3BITS_DTHR 0 VALUE {
+  V(UPWM_U22_OUT_12BITS)-8*V(UPWM_U22_OUT_9BITS)    }
E_UPWM_U22_ABM14         UPWM_PWM_VAL21 0 VALUE { IF(V(UPWM_U22_CLO_8) <0.1 |
+  V(UPWM_U22_BRI_8)<0.1, -0.00001,  
+ +IF(V(UPWM_U22_CLO_8)>254.5 &
+  V(UPWM_U22_BRI_8)>254.5,1.0001,V(UPWM_U22_PRE_PWM)))   }
E_UPWM_U22_ABM5         UPWM_U22_CLO_8 0 VALUE { IF(V(LED_BANK_EN7) <
+  0.5,V(COLOR21),V(BANK_A_COLOR))    }
E_UPWM_U22_ABM7         UPWM_U22_CLO_12BITS 0 VALUE {
+  V(UPWM_U22_CLO_8)*16+floor(V(UPWM_U22_CLO_8)/16)    }
X_UPWM_U22_U1         UPWM_U22_BRI_8 0 UPWM_U22_BRIGH_LOG_12BITS 0
+  ETABLE_8_TO_12BIT 
E_UPWM_U22_ABM9         UPWM_U22_BRIGH_12BITS 0 VALUE { IF(V(LOG_SCALE_EN) >
+  0.5,V(UPWM_U22_BRIGH_LOG_12BITS),V(UPWM_U22_BRIGH_LINEAR_12BITS))    }
E_UPWM_U22_ABM12         UPWM_U22_OUT_9BITS 0 VALUE {
+  floor(V(UPWM_U22_OUT_12BITS)/8)    }
E_UPWM_U22_ABM8         UPWM_U22_BRIGH_LINEAR_12BITS 0 VALUE {
+  V(UPWM_U22_BRI_8)*16+floor(V(UPWM_U22_BRI_8)/16)    }
E_UPWM_U22_ABM6         UPWM_U22_BRI_8 0 VALUE { IF(V(LED_BANK_EN7) <
+  0.5,V(BRIGHT7),V(BANK_BRIGHTNESS))    }
E_UPWM_U22_ABM11         UPWM_U22_PRE_PWM 0 VALUE { IF(V(PWM_DITHERING_EN)
+  <0.5, V(UPWM_U22_OUT_12BITS)/4095,  
+ +(V(UPWM_U22_OUT_9BITS)+V(UPWM_U22_OUT_3BITS_DTHR)/8)/512)   }
E_UPWM_U22_ABM10         UPWM_U22_OUT_12BITS 0 VALUE {
+  floor((V(UPWM_U22_CLO_12BITS)*V(UPWM_U22_BRIGH_12BITS))/4096)    }
E_UPWM_U2_ABM13         UPWM_U2_OUT_3BITS_DTHR 0 VALUE {
+  V(UPWM_U2_OUT_12BITS)-8*V(UPWM_U2_OUT_9BITS)    }
E_UPWM_U2_ABM14         UPWM_PWM_VAL1 0 VALUE { IF(V(UPWM_U2_CLO_8) <0.1 |
+  V(UPWM_U2_BRI_8)<0.1, -0.00001,  
+ +IF(V(UPWM_U2_CLO_8)>254.5 &
+  V(UPWM_U2_BRI_8)>254.5,1.0001,V(UPWM_U2_PRE_PWM)))   }
E_UPWM_U2_ABM5         UPWM_U2_CLO_8 0 VALUE { IF(V(LED_BANK_EN0) <
+  0.5,V(COLOR1),V(BANK_B_COLOR))    }
E_UPWM_U2_ABM7         UPWM_U2_CLO_12BITS 0 VALUE {
+  V(UPWM_U2_CLO_8)*16+floor(V(UPWM_U2_CLO_8)/16)    }
X_UPWM_U2_U1         UPWM_U2_BRI_8 0 UPWM_U2_BRIGH_LOG_12BITS 0
+  ETABLE_8_TO_12BIT 
E_UPWM_U2_ABM9         UPWM_U2_BRIGH_12BITS 0 VALUE { IF(V(LOG_SCALE_EN) >
+  0.5,V(UPWM_U2_BRIGH_LOG_12BITS),V(UPWM_U2_BRIGH_LINEAR_12BITS))    }
E_UPWM_U2_ABM12         UPWM_U2_OUT_9BITS 0 VALUE {
+  floor(V(UPWM_U2_OUT_12BITS)/8)    }
E_UPWM_U2_ABM8         UPWM_U2_BRIGH_LINEAR_12BITS 0 VALUE {
+  V(UPWM_U2_BRI_8)*16+floor(V(UPWM_U2_BRI_8)/16)    }
E_UPWM_U2_ABM6         UPWM_U2_BRI_8 0 VALUE { IF(V(LED_BANK_EN0) <
+  0.5,V(BRIGHT0),V(BANK_BRIGHTNESS))    }
E_UPWM_U2_ABM11         UPWM_U2_PRE_PWM 0 VALUE { IF(V(PWM_DITHERING_EN) <0.5,
+  V(UPWM_U2_OUT_12BITS)/4095,  
+ +(V(UPWM_U2_OUT_9BITS)+V(UPWM_U2_OUT_3BITS_DTHR)/8)/512)   }
E_UPWM_U2_ABM10         UPWM_U2_OUT_12BITS 0 VALUE {
+  floor((V(UPWM_U2_CLO_12BITS)*V(UPWM_U2_BRIGH_12BITS))/4096)    }
E_UPWM_U23_ABM13         UPWM_U23_OUT_3BITS_DTHR 0 VALUE {
+  V(UPWM_U23_OUT_12BITS)-8*V(UPWM_U23_OUT_9BITS)    }
E_UPWM_U23_ABM14         UPWM_PWM_VAL22 0 VALUE { IF(V(UPWM_U23_CLO_8) <0.1 |
+  V(UPWM_U23_BRI_8)<0.1, -0.00001,  
+ +IF(V(UPWM_U23_CLO_8)>254.5 &
+  V(UPWM_U23_BRI_8)>254.5,1.0001,V(UPWM_U23_PRE_PWM)))   }
E_UPWM_U23_ABM5         UPWM_U23_CLO_8 0 VALUE { IF(V(LED_BANK_EN7) <
+  0.5,V(COLOR22),V(BANK_B_COLOR))    }
E_UPWM_U23_ABM7         UPWM_U23_CLO_12BITS 0 VALUE {
+  V(UPWM_U23_CLO_8)*16+floor(V(UPWM_U23_CLO_8)/16)    }
X_UPWM_U23_U1         UPWM_U23_BRI_8 0 UPWM_U23_BRIGH_LOG_12BITS 0
+  ETABLE_8_TO_12BIT 
E_UPWM_U23_ABM9         UPWM_U23_BRIGH_12BITS 0 VALUE { IF(V(LOG_SCALE_EN) >
+  0.5,V(UPWM_U23_BRIGH_LOG_12BITS),V(UPWM_U23_BRIGH_LINEAR_12BITS))    }
E_UPWM_U23_ABM12         UPWM_U23_OUT_9BITS 0 VALUE {
+  floor(V(UPWM_U23_OUT_12BITS)/8)    }
E_UPWM_U23_ABM8         UPWM_U23_BRIGH_LINEAR_12BITS 0 VALUE {
+  V(UPWM_U23_BRI_8)*16+floor(V(UPWM_U23_BRI_8)/16)    }
E_UPWM_U23_ABM6         UPWM_U23_BRI_8 0 VALUE { IF(V(LED_BANK_EN7) <
+  0.5,V(BRIGHT7),V(BANK_BRIGHTNESS))    }
E_UPWM_U23_ABM11         UPWM_U23_PRE_PWM 0 VALUE { IF(V(PWM_DITHERING_EN)
+  <0.5, V(UPWM_U23_OUT_12BITS)/4095,  
+ +(V(UPWM_U23_OUT_9BITS)+V(UPWM_U23_OUT_3BITS_DTHR)/8)/512)   }
E_UPWM_U23_ABM10         UPWM_U23_OUT_12BITS 0 VALUE {
+  floor((V(UPWM_U23_CLO_12BITS)*V(UPWM_U23_BRIGH_12BITS))/4096)    }
E_UPWM_UPWM6_ABM2         PWM19 0 VALUE { IF((V(UPWM_UPWM6_RAMP) >=
+  0.5-V(UPWM_PWM_VAL19)/2) & V(INIT) > 0.5 &  
+ (V(UPWM_UPWM6_RAMP) <= 0.5+V(UPWM_PWM_VAL19)/2),1,0)   }
E_UPWM_UPWM6_ABM1         PWM18 0 VALUE { IF(V(UPWM_PWM_VAL18) >=
+  V(UPWM_UPWM6_RAMP) & V(INIT) > 0.5,1,0)    }
X_UPWM_UPWM6_U69         0 UPWM_UPWM6_PRE_RAMP d_d1 PARAMS:
X_UPWM_UPWM6_U25         INIT UPWM_UPWM6_N16753948 UPWM_UPWM6_CTRL
+  AND2_BASIC_GEN PARAMS: VDD=1 VSS=0 VTHRESH=500E-3
V_UPWM_UPWM6_V44         UPWM_UPWM6_N16747357 0 1
R_UPWM_UPWM6_R3         0 UPWM_UPWM6_PRE_RAMP  1G  
E_UPWM_UPWM6_ABM3         PWM20 0 VALUE { IF(V(UPWM_UPWM6_RAMP) >=
+  1-V(UPWM_PWM_VAL20) & V(INIT)>0.5,1,0)    }
X_UPWM_UPWM6_U68         UPWM_UPWM6_PRE_RAMP UPWM_UPWM6_N16747357 d_d1 PARAMS:
C_UPWM_UPWM6_C1         0 UPWM_UPWM6_PRE_RAMP  1n  TC=0,0 
X_UPWM_UPWM6_U44         UPWM_UPWM6_N16754427 UPWM_UPWM6_N16754549 one_shot
+  PARAMS:  T=10  
X_UPWM_UPWM6_U34         UPWM_UPWM6_N16754549 UPWM_UPWM6_N16753948