* LP5012	
*****************************************************************************
* (C) Copyright 2019 Texas Instruments Incorporated. All rights reserved.
*****************************************************************************
** This model is designed as an aid for customers of Texas Instruments.
** TI and its licensors and suppliers make no warranties, either expressed
** or implied, with respect to this model, including the warranties of
** merchantability or fitness for a particular purpose. The model is
** provided solely on an "as is" basis. The entire risk as to its quality
** and performance is with the customer.
*****************************************************************************
*
* Released by: WEBENCH Design Center, Texas Instruments Inc.
* Part: LP5012
* Date: 27MAY2019
* Model Type: Transient
* Simulator: PSPICE
* Simulator Version: 16.2.0.s003
* EVM Order Number: 
* EVM Users Guide: 
* Datasheet:
*
* Model Version: Final 1.00
*
*****************************************************************************
*
* Updates:
*
* Final 1.00
* Release to Web
*
*****************************************************************************
*$
.SUBCKT LP5012_TRANS BANK_A_COLOR BANK_B_COLOR BANK_BRIGHTNESS BANK_C_COLOR BRIGHT0
+  BRIGHT1 BRIGHT2 BRIGHT3 COLOR0 COLOR1 COLOR2 COLOR3 COLOR4 COLOR5 COLOR6
+  COLOR7 COLOR8 COLOR9 COLOR10 COLOR11 EN GND IREF LED_Bank_EN0 LED_Bank_EN1
+  LED_Bank_EN2 LED_Bank_EN3 Log_Scale_EN Max_Current_Option OUT0 OUT1 OUT2 OUT3
+  OUT4 OUT5 OUT6 OUT7 OUT8 OUT9 OUT10 OUT11 PWM_Dithering_EN RESET TEMP VCC  
V_V44         N19703649 GND 0
E_UPWM_U4_ABM13         UPWM_U4_OUT_3BITS_DTHR 0 VALUE {
+  V(UPWM_U4_OUT_12BITS)-8*V(UPWM_U4_OUT_9BITS)    }
E_UPWM_U4_ABM14         UPWM_PWM_VAL3 0 VALUE { IF(V(UPWM_U4_CLO_8) <0.1 |
+  V(UPWM_U4_BRI_8)<0.1, -0.00001,  
+ +IF(V(UPWM_U4_CLO_8)>254.5 &
+  V(UPWM_U4_BRI_8)>254.5,1.0001,V(UPWM_U4_PRE_PWM)))   }
E_UPWM_U4_ABM5         UPWM_U4_CLO_8 0 VALUE { IF(V(LED_BANK_EN1) <
+  0.5,V(COLOR3),V(BANK_A_COLOR))    }
E_UPWM_U4_ABM7         UPWM_U4_CLO_12BITS 0 VALUE {
+  V(UPWM_U4_CLO_8)*16+floor(V(UPWM_U4_CLO_8)/16)    }
X_UPWM_U4_U1         UPWM_U4_BRI_8 0 UPWM_U4_BRIGH_LOG_12BITS 0
+  ETABLE_8_TO_12BIT 
E_UPWM_U4_ABM9         UPWM_U4_BRIGH_12BITS 0 VALUE { IF(V(LOG_SCALE_EN) >
+  0.5,V(UPWM_U4_BRIGH_LOG_12BITS),V(UPWM_U4_BRIGH_LINEAR_12BITS))    }
E_UPWM_U4_ABM12         UPWM_U4_OUT_9BITS 0 VALUE {
+  floor(V(UPWM_U4_OUT_12BITS)/8)    }
E_UPWM_U4_ABM8         UPWM_U4_BRIGH_LINEAR_12BITS 0 VALUE {
+  V(UPWM_U4_BRI_8)*16+floor(V(UPWM_U4_BRI_8)/16)    }
E_UPWM_U4_ABM6         UPWM_U4_BRI_8 0 VALUE { IF(V(LED_BANK_EN1) <
+  0.5,V(BRIGHT1),V(BANK_BRIGHTNESS))    }
E_UPWM_U4_ABM11         UPWM_U4_PRE_PWM 0 VALUE { IF(V(PWM_DITHERING_EN) <0.5,
+  V(UPWM_U4_OUT_12BITS)/4095,  
+ +(V(UPWM_U4_OUT_9BITS)+V(UPWM_U4_OUT_3BITS_DTHR)/8)/512)   }
E_UPWM_U4_ABM10         UPWM_U4_OUT_12BITS 0 VALUE {
+  floor((V(UPWM_U4_CLO_12BITS)*V(UPWM_U4_BRIGH_12BITS))/4096)    }
E_UPWM_UPWM0_ABM2         PWM1 0 VALUE { IF((V(UPWM_UPWM0_RAMP) >=
+  0.5-V(UPWM_PWM_VAL1)/2) & V(INIT) > 0.5 &  
+ (V(UPWM_UPWM0_RAMP) <= 0.5+V(UPWM_PWM_VAL1)/2),1,0)   }
E_UPWM_UPWM0_ABM1         PWM0 0 VALUE { IF(V(UPWM_PWM_VAL0) >=
+  V(UPWM_UPWM0_RAMP) & V(INIT) > 0.5,1,0)    }
X_UPWM_UPWM0_U69         0 UPWM_UPWM0_PRE_RAMP d_d1 PARAMS:
X_UPWM_UPWM0_U25         INIT UPWM_UPWM0_N16753948 UPWM_UPWM0_CTRL
+  AND2_BASIC_GEN PARAMS: VDD=1 VSS=0 VTHRESH=500E-3
V_UPWM_UPWM0_V44         UPWM_UPWM0_N16747357 0 1
R_UPWM_UPWM0_R3         0 UPWM_UPWM0_PRE_RAMP  1G  
E_UPWM_UPWM0_ABM3         PWM2 0 VALUE { IF(V(UPWM_UPWM0_RAMP) >=
+  1-V(UPWM_PWM_VAL2) & V(INIT)>0.5,1,0)    }
X_UPWM_UPWM0_U68         UPWM_UPWM0_PRE_RAMP UPWM_UPWM0_N16747357 d_d1 PARAMS:
C_UPWM_UPWM0_C1         0 UPWM_UPWM0_PRE_RAMP  1n  TC=0,0 
X_UPWM_UPWM0_U44         UPWM_UPWM0_N16754427 UPWM_UPWM0_N16754549 one_shot
+  PARAMS:  T=10  
X_UPWM_UPWM0_U34         UPWM_UPWM0_N16754549 UPWM_UPWM0_N16753948
+  INV_BASIC_GEN PARAMS: VDD=1 VSS=0 VTHRESH=500E-3
G_UPWM_UPWM0_ABMII2         UPWM_UPWM0_N16747357 UPWM_UPWM0_PRE_RAMP VALUE {
+  IF(V(UPWM_UPWM0_CTRL) > 0.5,29u,0)    }
E_UPWM_UPWM0_ABM4         UPWM_UPWM0_N16754427 0 VALUE {
+  IF(V(UPWM_UPWM0_PRE_RAMP) >=1,1,0)    }
E_UPWM_UPWM0_ABM5         UPWM_UPWM0_RAMP 0 VALUE {
+  LIMIT(V(UPWM_UPWM0_PRE_RAMP),0,1)    }
G_UPWM_UPWM0_ABMII3         UPWM_UPWM0_PRE_RAMP 0 VALUE { IF(V(UPWM_UPWM0_CTRL)
+  < 0.5,1,0)    }
E_UPWM_U5_ABM13         UPWM_U5_OUT_3BITS_DTHR 0 VALUE {
+  V(UPWM_U5_OUT_12BITS)-8*V(UPWM_U5_OUT_9BITS)    }
E_UPWM_U5_ABM14         UPWM_PWM_VAL4 0 VALUE { IF(V(UPWM_U5_CLO_8) <0.1 |
+  V(UPWM_U5_BRI_8)<0.1, -0.00001,  
+ +IF(V(UPWM_U5_CLO_8)>254.5 &
+  V(UPWM_U5_BRI_8)>254.5,1.0001,V(UPWM_U5_PRE_PWM)))   }
E_UPWM_U5_ABM5         UPWM_U5_CLO_8 0 VALUE { IF(V(LED_BANK_EN1) <
+  0.5,V(COLOR4),V(BANK_B_COLOR))    }
E_UPWM_U5_ABM7         UPWM_U5_CLO_12BITS 0 VALUE {
+  V(UPWM_U5_CLO_8)*16+floor(V(UPWM_U5_CLO_8)/16)    }
X_UPWM_U5_U1         UPWM_U5_BRI_8 0 UPWM_U5_BRIGH_LOG_12BITS 0
+  ETABLE_8_TO_12BIT 
E_UPWM_U5_ABM9         UPWM_U5_BRIGH_12BITS 0 VALUE { IF(V(LOG_SCALE_EN) >
+  0.5,V(UPWM_U5_BRIGH_LOG_12BITS),V(UPWM_U5_BRIGH_LINEAR_12BITS))    }
E_UPWM_U5_ABM12         UPWM_U5_OUT_9BITS 0 VALUE {
+  floor(V(UPWM_U5_OUT_12BITS)/8)    }
E_UPWM_U5_ABM8         UPWM_U5_BRIGH_LINEAR_12BITS 0 VALUE {
+  V(UPWM_U5_BRI_8)*16+floor(V(UPWM_U5_BRI_8)/16)    }
E_UPWM_U5_ABM6         UPWM_U5_BRI_8 0 VALUE { IF(V(LED_BANK_EN1) <
+  0.5,V(BRIGHT1),V(BANK_BRIGHTNESS))    }
E_UPWM_U5_ABM11         UPWM_U5_PRE_PWM 0 VALUE { IF(V(PWM_DITHERING_EN) <0.5,
+  V(UPWM_U5_OUT_12BITS)/4095,  
+ +(V(UPWM_U5_OUT_9BITS)+V(UPWM_U5_OUT_3BITS_DTHR)/8)/512)   }
E_UPWM_U5_ABM10         UPWM_U5_OUT_12BITS 0 VALUE {
+  floor((V(UPWM_U5_CLO_12BITS)*V(UPWM_U5_BRIGH_12BITS))/4096)    }
E_UPWM_U1_ABM13         UPWM_U1_OUT_3BITS_DTHR 0 VALUE {
+  V(UPWM_U1_OUT_12BITS)-8*V(UPWM_U1_OUT_9BITS)    }
E_UPWM_U1_ABM14         UPWM_PWM_VAL0 0 VALUE { IF(V(UPWM_U1_CLO_8) <0.1 |
+  V(UPWM_U1_BRI_8)<0.1, -0.00001,  
+ +IF(V(UPWM_U1_CLO_8)>254.5 &
+  V(UPWM_U1_BRI_8)>254.5,1.0001,V(UPWM_U1_PRE_PWM)))   }
E_UPWM_U1_ABM5         UPWM_U1_CLO_8 0 VALUE { IF(V(LED_BANK_EN0) <
+  0.5,V(COLOR0),V(BANK_A_COLOR))    }
E_UPWM_U1_ABM7         UPWM_U1_CLO_12BITS 0 VALUE {
+  V(UPWM_U1_CLO_8)*16+floor(V(UPWM_U1_CLO_8)/16)    }
X_UPWM_U1_U1         UPWM_U1_BRI_8 0 UPWM_U1_BRIGH_LOG_12BITS 0
+  ETABLE_8_TO_12BIT 
E_UPWM_U1_ABM9         UPWM_U1_BRIGH_12BITS 0 VALUE { IF(V(LOG_SCALE_EN) >
+  0.5,V(UPWM_U1_BRIGH_LOG_12BITS),V(UPWM_U1_BRIGH_LINEAR_12BITS))    }
E_UPWM_U1_ABM12         UPWM_U1_OUT_9BITS 0 VALUE {
+  floor(V(UPWM_U1_OUT_12BITS)/8)    }
E_UPWM_U1_ABM8         UPWM_U1_BRIGH_LINEAR_12BITS 0 VALUE {
+  V(UPWM_U1_BRI_8)*16+floor(V(UPWM_U1_BRI_8)/16)    }
E_UPWM_U1_ABM6         UPWM_U1_BRI_8 0 VALUE { IF(V(LED_BANK_EN0) <
+  0.5,V(BRIGHT0),V(BANK_BRIGHTNESS))    }
E_UPWM_U1_ABM11         UPWM_U1_PRE_PWM 0 VALUE { IF(V(PWM_DITHERING_EN) <0.5,
+  V(UPWM_U1_OUT_12BITS)/4095,  
+ +(V(UPWM_U1_OUT_9BITS)+V(UPWM_U1_OUT_3BITS_DTHR)/8)/512)   }
E_UPWM_U1_ABM10         UPWM_U1_OUT_12BITS 0 VALUE {
+  floor((V(UPWM_U1_CLO_12BITS)*V(UPWM_U1_BRIGH_12BITS))/4096)    }
E_UPWM_U6_ABM13         UPWM_U6_OUT_3BITS_DTHR 0 VALUE {
+  V(UPWM_U6_OUT_12BITS)-8*V(UPWM_U6_OUT_9BITS)    }
E_UPWM_U6_ABM14         UPWM_PWM_VAL5 0 VALUE { IF(V(UPWM_U6_CLO_8) <0.1 |
+  V(UPWM_U6_BRI_8)<0.1, -0.00001,  
+ +IF(V(UPWM_U6_CLO_8)>254.5 &
+  V(UPWM_U6_BRI_8)>254.5,1.0001,V(UPWM_U6_PRE_PWM)))   }
E_UPWM_U6_ABM5         UPWM_U6_CLO_8 0 VALUE { IF(V(LED_BANK_EN1) <
+  0.5,V(COLOR5),V(BANK_C_COLOR))    }
E_UPWM_U6_ABM7         UPWM_U6_CLO_12BITS 0 VALUE {
+  V(UPWM_U6_CLO_8)*16+floor(V(UPWM_U6_CLO_8)/16)    }
X_UPWM_U6_U1         UPWM_U6_BRI_8 0 UPWM_U6_BRIGH_LOG_12BITS 0
+  ETABLE_8_TO_12BIT 
E_UPWM_U6_ABM9         UPWM_U6_BRIGH_12BITS 0 VALUE { IF(V(LOG_SCALE_EN) >
+  0.5,V(UPWM_U6_BRIGH_LOG_12BITS),V(UPWM_U6_BRIGH_LINEAR_12BITS))    }
E_UPWM_U6_ABM12         UPWM_U6_OUT_9BITS 0 VALUE {
+  floor(V(UPWM_U6_OUT_12BITS)/8)    }
E_UPWM_U6_ABM8         UPWM_U6_BRIGH_LINEAR_12BITS 0 VALUE {
+  V(UPWM_U6_BRI_8)*16+floor(V(UPWM_U6_BRI_8)/16)    }
E_UPWM_U6_ABM6         UPWM_U6_BRI_8 0 VALUE { IF(V(LED_BANK_EN1) <
+  0.5,V(BRIGHT1),V(BANK_BRIGHTNESS))    }
E_UPWM_U6_ABM11         UPWM_U6_PRE_PWM 0 VALUE { IF(V(PWM_DITHERING_EN) <0.5,
+  V(UPWM_U6_OUT_12BITS)/4095,  
+ +(V(UPWM_U6_OUT_9BITS)+V(UPWM_U6_OUT_3BITS_DTHR)/8)/512)   }
E_UPWM_U6_ABM10         UPWM_U6_OUT_12BITS 0 VALUE {
+  floor((V(UPWM_U6_CLO_12BITS)*V(UPWM_U6_BRIGH_12BITS))/4096)    }
E_UPWM_UPWM1_ABM2         PWM4 0 VALUE { IF((V(UPWM_UPWM1_RAMP) >=
+  0.5-V(UPWM_PWM_VAL4)/2) & V(INIT) > 0.5 &  
+ (V(UPWM_UPWM1_RAMP) <= 0.5+V(UPWM_PWM_VAL4)/2),1,0)   }
E_UPWM_UPWM1_ABM1         PWM3 0 VALUE { IF(V(UPWM_PWM_VAL3) >=
+  V(UPWM_UPWM1_RAMP) & V(INIT) > 0.5,1,0)    }
X_UPWM_UPWM1_U69         0 UPWM_UPWM1_PRE_RAMP d_d1 PARAMS:
X_UPWM_UPWM1_U25         INIT UPWM_UPWM1_N16753948 UPWM_UPWM1_CTRL
+  AND2_BASIC_GEN PARAMS: VDD=1 VSS=0 VTHRESH=500E-3
V_UPWM_UPWM1_V44         UPWM_UPWM1_N16747357 0 1
R_UPWM_UPWM1_R3         0 UPWM_UPWM1_PRE_RAMP  1G  
E_UPWM_UPWM1_ABM3         PWM5 0 VALUE { IF(V(UPWM_UPWM1_RAMP) >=
+  1-V(UPWM_PWM_VAL5) & V(INIT)>0.5,1,0)    }
X_UPWM_UPWM1_U68         UPWM_UPWM1_PRE_RAMP UPWM_UPWM1_N16747357 d_d1 PARAMS:
C_UPWM_UPWM1_C1         0 UPWM_UPWM1_PRE_RAMP  1n  TC=0,0 
X_UPWM_UPWM1_U44         UPWM_UPWM1_N16754427 UPWM_UPWM1_N16754549 one_shot
+  PARAMS:  T=10  
X_UPWM_UPWM1_U34         UPWM_UPWM1_N16754549 UPWM_UPWM1_N16753948
+  INV_BASIC_GEN PARAMS: VDD=1 VSS=0 VTHRESH=500E-3
G_UPWM_UPWM1_ABMII2         UPWM_UPWM1_N16747357 UPWM_UPWM1_PRE_RAMP VALUE {
+  IF(V(UPWM_UPWM1_CTRL) > 0.5,29u,0)    }
E_UPWM_UPWM1_ABM4         UPWM_UPWM1_N16754427 0 VALUE {
+  IF(V(UPWM_UPWM1_PRE_RAMP) >=1,1,0)    }
E_UPWM_UPWM1_ABM5         UPWM_UPWM1_RAMP 0 VALUE {
+  LIMIT(V(UPWM_UPWM1_PRE_RAMP),0,1)    }
G_UPWM_UPWM1_ABMII3         UPWM_UPWM1_PRE_RAMP 0 VALUE { IF(V(UPWM_UPWM1_CTRL)
+  < 0.5,1,0)    }
E_UPWM_U2_ABM13         UPWM_U2_OUT_3BITS_DTHR 0 VALUE {
+  V(UPWM_U2_OUT_12BITS)-8*V(UPWM_U2_OUT_9BITS)    }
E_UPWM_U2_ABM14         UPWM_PWM_VAL1 0 VALUE { IF(V(UPWM_U2_CLO_8) <0.1 |
+  V(UPWM_U2_BRI_8)<0.1, -0.00001,  
+ +IF(V(UPWM_U2_CLO_8)>254.5 &
+  V(UPWM_U2_BRI_8)>254.5,1.0001,V(UPWM_U2_PRE_PWM)))   }
E_UPWM_U2_ABM5         UPWM_U2_CLO_8 0 VALUE { IF(V(LED_BANK_EN0) <
+  0.5,V(COLOR1),V(BANK_B_COLOR))    }
E_UPWM_U2_ABM7         UPWM_U2_CLO_12BITS 0 VALUE {
+  V(UPWM_U2_CLO_8)*16+floor(V(UPWM_U2_CLO_8)/16)    }
X_UPWM_U2_U1         UPWM_U2_BRI_8 0 UPWM_U2_BRIGH_LOG_12BITS 0
+  ETABLE_8_TO_12BIT 
E_UPWM_U2_ABM9         UPWM_U2_BRIGH_12BITS 0 VALUE { IF(V(LOG_SCALE_EN) >
+  0.5,V(UPWM_U2_BRIGH_LOG_12BITS),V(UPWM_U2_BRIGH_LINEAR_12BITS))    }
E_UPWM_U2_ABM12         UPWM_U2_OUT_9BITS 0 VALUE {
+  floor(V(UPWM_U2_OUT_12BITS)/8)    }
E_UPWM_U2_ABM8         UPWM_U2_BRIGH_LINEAR_12BITS 0 VALUE {
+  V(UPWM_U2_BRI_8)*16+floor(V(UPWM_U2_BRI_8)/16)    }
E_UPWM_U2_ABM6         UPWM_U2_BRI_8 0 VALUE { IF(V(LED_BANK_EN0) <
+  0.5,V(BRIGHT0),V(BANK_BRIGHTNESS))    }
E_UPWM_U2_ABM11         UPWM_U2_PRE_PWM 0 VALUE { IF(V(PWM_DITHERING_EN) <0.5,
+  V(UPWM_U2_OUT_12BITS)/4095,  
+ +(V(UPWM_U2_OUT_9BITS)+V(UPWM_U2_OUT_3BITS_DTHR)/8)/512)   }
E_UPWM_U2_ABM10         UPWM_U2_OUT_12BITS 0 VALUE {
+  floor((V(UPWM_U2_CLO_12BITS)*V(UPWM_U2_BRIGH_12BITS))/4096)    }
E_UPWM_U3_ABM13         UPWM_U3_OUT_3BITS_DTHR 0 VALUE {
+  V(UPWM_U3_OUT_12BITS)-8*V(UPWM_U3_OUT_9BITS)    }
E_UPWM_U3_ABM14         UPWM_PWM_VAL2 0 VALUE { IF(V(UPWM_U3_CLO_8) <0.1 |
+  V(UPWM_U3_BRI_8)<0.1, -0.00001,  
+ +IF(V(UPWM_U3_CLO_8)>254.5 &
+  V(UPWM_U3_BRI_8)>254.5,1.0001,V(UPWM_U3_PRE_PWM)))   }
E_UPWM_U3_ABM5         UPWM_U3_CLO_8 0 VALUE { IF(V(LED_BANK_EN0) <
+  0.5,V(COLOR2),V(BANK_C_COLOR))    }
E_UPWM_U3_ABM7         UPWM_U3_CLO_12BITS 0 VALUE {
+  V(UPWM_U3_CLO_8)*16+floor(V(UPWM_U3_CLO_8)/16)    }
X_UPWM_U3_U1         UPWM_U3_BRI_8 0 UPWM_U3_BRIGH_LOG_12BITS 0
+  ETABLE_8_TO_12BIT 
E_UPWM_U3_ABM9         UPWM_U3_BRIGH_12BITS 0 VALUE { IF(V(LOG_SCALE_EN) >
+  0.5,V(UPWM_U3_BRIGH_LOG_12BITS),V(UPWM_U3_BRIGH_LINEAR_12BITS))    }
E_UPWM_U3_ABM12         UPWM_U3_OUT_9BITS 0 VALUE {
+  floor(V(UPWM_U3_OUT_12BITS)/8)    }
E_UPWM_U3_ABM8         UPWM_U3_BRIGH_LINEAR_12BITS 0 VALUE {
+  V(UPWM_U3_BRI_8)*16+floor(V(UPWM_U3_BRI_8)/16)    }
E_UPWM_U3_ABM6         UPWM_U3_BRI_8 0 VALUE { IF(V(LED_BANK_EN0) <
+  0.5,V(BRIGHT0),V(BANK_BRIGHTNESS))    }
E_UPWM_U3_ABM11         UPWM_U3_PRE_PWM 0 VALUE { IF(V(PWM_DITHERING_EN) <0.5,
+  V(UPWM_U3_OUT_12BITS)/4095,  
+ +(V(UPWM_U3_OUT_9BITS)+V(UPWM_U3_OUT_3BITS_DTHR)/8)/512)   }
E_UPWM_U3_ABM10         UPWM_U3_OUT_12BITS 0 VALUE {
+  floor((V(UPWM_U3_CLO_12BITS)*V(UPWM_U3_BRIGH_12BITS))/4096)    }
E_UPWM_U7_ABM13         UPWM_U7_OUT_3BITS_DTHR 0 VALUE {
+  V(UPWM_U7_OUT_12BITS)-8*V(UPWM_U7_OUT_9BITS)    }
E_UPWM_U7_ABM14         UPWM_PWM_VAL6 0 VALUE { IF(V(UPWM_U7_CLO_8) <0.1 |
+  V(UPWM_U7_BRI_8)<0.1, -0.00001,  
+ +IF(V(UPWM_U7_CLO_8)>254.5 &
+  V(UPWM_U7_BRI_8)>254.5,1.0001,V(UPWM_U7_PRE_PWM)))   }
E_UPWM_U7_ABM5         UPWM_U7_CLO_8 0 VALUE { IF(V(LED_BANK_EN2) <
+  0.5,V(COLOR6),V(BANK_A_COLOR))    }
E_UPWM_U7_ABM7         UPWM_U7_CLO_12BITS 0 VALUE {
+  V(UPWM_U7_CLO_8)*16+floor(V(UPWM_U7_CLO_8)/16)    }
X_UPWM_U7_U1         UPWM_U7_BRI_8 0 UPWM_U7_BRIGH_LOG_12BITS 0
+  ETABLE_8_TO_12BIT 
E_UPWM_U7_ABM9         UPWM_U7_BRIGH_12BITS 0 VALUE { IF(V(LOG_SCALE_EN) >
+  0.5,V(UPWM_U7_BRIGH_LOG_12BITS),V(UPWM_U7_BRIGH_LINEAR_12BITS))    }
E_UPWM_U7_ABM12         UPWM_U7_OUT_9BITS 0 VALUE {
+  floor(V(UPWM_U7_OUT_12BITS)/8)    }
E_UPWM_U7_ABM8         UPWM_U7_BRIGH_LINEAR_12BITS 0 VALUE {
+  V(UPWM_U7_BRI_8)*16+floor(V(UPWM_U7_BRI_8)/16)    }
E_UPWM_U7_ABM6         UPWM_U7_BRI_8 0 VALUE { IF(V(LED_BANK_EN2) <
+  0.5,V(BRIGHT2),V(BANK_BRIGHTNESS))    }
E_UPWM_U7_ABM11         UPWM_U7_PRE_PWM 0 VALUE { IF(V(PWM_DITHERING_EN) <0.5,
+  V(UPWM_U7_OUT_12BITS)/4095,  
+ +(V(UPWM_U7_OUT_9BITS)+V(UPWM_U7_OUT_3BITS_DTHR)/8)/512)   }
E_UPWM_U7_ABM10         UPWM_U7_OUT_12BITS 0 VALUE {
+  floor((V(UPWM_U7_CLO_12BITS)*V(UPWM_U7_BRIGH_12BITS))/4096)    }
E_UPWM_U8_ABM13         UPWM_U8_OUT_3BITS_DTHR 0 VALUE {
+  V(UPWM_U8_OUT_12BITS)-8*V(UPWM_U8_OUT_9BITS)    }
E_UPWM_U8_ABM14         UPWM_PWM_VAL7 0 VALUE { IF(V(UPWM_U8_CLO_8) <0.1 |
+  V(UPWM_U8_BRI_8)<0.1, -0.00001,  
+ +IF(V(UPWM_U8_CLO_8)>254.5 &
+  V(UPWM_U8_BRI_8)>254.5,1.0001,V(UPWM_U8_PRE_PWM)))   }
E_UPWM_U8_ABM5         UPWM_U8_CLO_8 0 VALUE { IF(V(LED_BANK_EN2) <
+  0.5,V(COLOR7),V(BANK_B_COLOR))    }
E_UPWM_U8_ABM7         UPWM_U8_CLO_12BITS 0 VALUE {
+  V(UPWM_U8_CLO_8)*16+floor(V(UPWM_U8_CLO_8)/16)    }
X_UPWM_U8_U1         UPWM_U8_BRI_8 0 UPWM_U8_BRIGH_LOG_12BITS 0
+  ETABLE_8_TO_12BIT 
E_UPWM_U8_ABM9         UPWM_U8_BRIGH_12BITS 0 VALUE { IF(V(LOG_SCALE_EN) >
+  0.5,V(UPWM_U8_BRIGH_LOG_12BITS),V(UPWM_U8_BRIGH_LINEAR_12BITS))    }
E_UPWM_U8_ABM12         UPWM_U8_OUT_9BITS 0 VALUE {
+  floor(V(UPWM_U8_OUT_12BITS)/8)    }
E_UPWM_U8_ABM8         UPWM_U8_BRIGH_LINEAR_12BITS 0 VALUE {
+  V(UPWM_U8_BRI_8)*16+floor(V(UPWM_U8_BRI_8)/16)    }
E_UPWM_U8_ABM6         UPWM_U8_BRI_8 0 VALUE { IF(V(LED_BANK_EN2) <
+  0.5,V(BRIGHT2),V(BANK_BRIGHTNESS))    }
E_UPWM_U8_ABM11         UPWM_U8_PRE_PWM 0 VALUE { IF(V(PWM_DITHERING_EN) <0.5,
+  V(UPWM_U8_OUT_12BITS)/4095,  
+ +(V(UPWM_U8_OUT_9BITS)+V(UPWM_U8_OUT_3BITS_DTHR)/8)/512)   }
E_UPWM_U8_ABM10         UPWM_U8_OUT_12BITS 0 VALUE {
+  floor((V(UPWM_U8_CLO_12BITS)*V(UPWM_U8_BRIGH_12BITS))/4096)    }
E_UPWM_U9_ABM13         UPWM_U9_OUT_3BITS_DTHR 0 VALUE {
+  V(UPWM_U9_OUT_12BITS)-8*V(UPWM_U9_OUT_9BITS)    }
E_UPWM_U9_ABM14         UPWM_PWM_VAL8 0 VALUE { IF(V(UPWM_U9_CLO_8) <0.1 |
+  V(UPWM_U9_BRI_8)<0.1, -0.00001,  
+ +IF(V(UPWM_U9_CLO_8)>254.5 &
+  V(UPWM_U9_BRI_8)>254.5,1.0001,V(UPWM_U9_PRE_PWM)))   }
E_UPWM_U9_ABM5         UPWM_U9_CLO_8 0 VALUE { IF(V(LED_BANK_EN2) <
+  0.5,V(COLOR8),V(BANK_C_COLOR))    }
E_UPWM_U9_ABM7         UPWM_U9_CLO_12BITS 0 VALUE {
+  V(UPWM_U9_CLO_8)*16+floor(V(UPWM_U9_CLO_8)/16)    }
X_UPWM_U9_U1         UPWM_U9_BRI_8 0 UPWM_U9_BRIGH_LOG_12BITS 0
+  ETABLE_8_TO_12BIT 
E_UPWM_U9_ABM9         UPWM_U9_BRIGH_12BITS 0 VALUE { IF(V(LOG_SCALE_EN) >
+  0.5,V(UPWM_U9_BRIGH_LOG_12BITS),V(UPWM_U9_BRIGH_LINEAR_12BITS))    }
E_UPWM_U9_ABM12         UPWM_U9_OUT_9BITS 0 VALUE {
+  floor(V(UPWM_U9_OUT_12BITS)/8)    }
E_UPWM_U9_ABM8         UPWM_U9_BRIGH_LINEAR_12BITS 0 VALUE {
+  V(UPWM_U9_BRI_8)*16+floor(V(UPWM_U9_BRI_8)/16)    }
E_UPWM_U9_ABM6         UPWM_U9_BRI_8 0 VALUE { IF(V(LED_BANK_EN2) <
+  0.5,V(BRIGHT2),V(BANK_BRIGHTNESS))    }
E_UPWM_U9_ABM11         UPWM_U9_PRE_PWM 0 VALUE { IF(V(PWM_DITHERING_EN) <0.5,
+  V(UPWM_U9_OUT_12BITS)/4095,  
+ +(V(UPWM_U9_OUT_9BITS)+V(UPWM_U9_OUT_3BITS_DTHR)/8)/512)   }
E_UPWM_U9_ABM10         UPWM_U9_OUT_12BITS 0 VALUE {
+  floor((V(UPWM_U9_CLO_12BITS)*V(UPWM_U9_BRIGH_12BITS))/4096)    }
E_UPWM_U10_ABM13         UPWM_U10_OUT_3BITS_DTHR 0 VALUE {
+  V(UPWM_U10_OUT_12BITS)-8*V(UPWM_U10_OUT_9BITS)    }
E_UPWM_U10_ABM14         UPWM_PWM_VAL9 0 VALUE { IF(V(UPWM_U10_CLO_8) <0.1 |
+  V(UPWM_U10_BRI_8)<0.1, -0.00001,  
+ +IF(V(UPWM_U10_CLO_8)>254.5 &
+  V(UPWM_U10_BRI_8)>254.5,1.0001,V(UPWM_U10_PRE_PWM)))   }
E_UPWM_U10_ABM5         UPWM_U10_CLO_8 0 VALUE { IF(V(LED_BANK_EN3) <
+  0.5,V(COLOR9),V(BANK_A_COLOR))    }
E_UPWM_U10_ABM7         UPWM_U10_CLO_12BITS 0 VALUE {
+  V(UPWM_U10_CLO_8)*16+floor(V(UPWM_U10_CLO_8)/16)    }
X_UPWM_U10_U1         UPWM_U10_BRI_8 0 UPWM_U10_BRIGH_LOG_12BITS 0
+  ETABLE_8_TO_12BIT 
E_UPWM_U10_ABM9         UPWM_U10_BRIGH_12BITS 0 VALUE { IF(V(LOG_SCALE_EN) >
+  0.5,V(UPWM_U10_BRIGH_LOG_12BITS),V(UPWM_U10_BRIGH_LINEAR_12BITS))    }
E_UPWM_U10_ABM12         UPWM_U10_OUT_9BITS 0 VALUE {
+  floor(V(UPWM_U10_OUT_12BITS)/8)    }
E_UPWM_U10_ABM8         UPWM_U10_BRIGH_LINEAR_12BITS 0 VALUE {
+  V(UPWM_U10_BRI_8)*16+floor(V(UPWM_U10_BRI_8)/16)    }
E_UPWM_U10_ABM6         UPWM_U10_BRI_8 0 VALUE { IF(V(LED_BANK_EN3) <
+  0.5,V(BRIGHT3),V(BANK_BRIGHTNESS))    }
E_UPWM_U10_ABM11         UPWM_U10_PRE_PWM 0 VALUE { IF(V(PWM_DITHERING_EN)
+  <0.5, V(UPWM_U10_OUT_12BITS)/4095,  
+ +(V(UPWM_U10_OUT_9BITS)+V(UPWM_U10_OUT_3BITS_DTHR)/8)/512)   }
E_UPWM_U10_ABM10         UPWM_U10_OUT_12BITS 0 VALUE {
+  floor((V(UPWM_U10_CLO_12BITS)*V(UPWM_U10_BRIGH_12BITS))/4096)    }
E_UPWM_U11_ABM13         UPWM_U11_OUT_3BITS_DTHR 0 VALUE {
+  V(UPWM_U11_OUT_12BITS)-8*V(UPWM_U11_OUT_9BITS)    }
E_UPWM_U11_ABM14         UPWM_PWM_VAL10 0 VALUE { IF(V(UPWM_U11_CLO_8) <0.1 |
+  V(UPWM_U11_BRI_8)<0.1, -0.00001,  
+ +IF(V(UPWM_U11_CLO_8)>254.5 &
+  V(UPWM_U11_BRI_8)>254.5,1.0001,V(UPWM_U11_PRE_PWM)))   }
E_UPWM_U11_ABM5         UPWM_U11_CLO_8 0 VALUE { IF(V(LED_BANK_EN3) <
+  0.5,V(COLOR10),V(BANK_B_COLOR))    }
E_UPWM_U11_ABM7         UPWM_U11_CLO_12BITS 0 VALUE {
+  V(UPWM_U11_CLO_8)*16+floor(V(UPWM_U11_CLO_8)/16)    }
X_UPWM_U11_U1         UPWM_U11_BRI_8 0 UPWM_U11_BRIGH_LOG_12BITS 0
+  ETABLE_8_TO_12BIT 
E_UPWM_U11_ABM9         UPWM_U11_BRIGH_12BITS 0 VALUE { IF(V(LOG_SCALE_EN) >
+  0.5,V(UPWM_U11_BRIGH_LOG_12BITS),V(UPWM_U11_BRIGH_LINEAR_12BITS))    }
E_UPWM_U11_ABM12         UPWM_U11_OUT_9BITS 0 VALUE {
+  floor(V(UPWM_U11_OUT_12BITS)/8)    }
E_UPWM_U11_ABM8         UPWM_U11_BRIGH_LINEAR_12BITS 0 VALUE {
+  V(UPWM_U11_BRI_8)*16+floor(V(UPWM_U11_BRI_8)/16)    }
E_UPWM_U11_ABM6         UPWM_U11_BRI_8 0 VALUE { IF(V(LED_BANK_EN3) <
+  0.5,V(BRIGHT3),V(BANK_BRIGHTNESS))    }
E_UPWM_U11_ABM11         UPWM_U11_PRE_PWM 0 VALUE { IF(V(PWM_DITHERING_EN)
+  <0.5, V(UPWM_U11_OUT_12BITS)/4095,  
+ +(V(UPWM_U11_OUT_9BITS)+V(UPWM_U11_OUT_3BITS_DTHR)/8)/512)   }
E_UPWM_U11_ABM10         UPWM_U11_OUT_12BITS 0 VALUE {
+  floor((V(UPWM_U11_CLO_12BITS)*V(UPWM_U11_BRIGH_12BITS))/4096)    }
E_UPWM_UPWM3_ABM2         PWM10 0 VALUE { IF((V(UPWM_UPWM3_RAMP) >=
+  0.5-V(UPWM_PWM_VAL10)/2) & V(INIT) > 0.5 &  
+ (V(UPWM_UPWM3_RAMP) <= 0.5+V(UPWM_PWM_VAL10)/2),1,0)   }
E_UPWM_UPWM3_ABM1         PWM9 0 VALUE { IF(V(UPWM_PWM_VAL9) >=
+  V(UPWM_UPWM3_RAMP) & V(INIT) > 0.5,1,0)    }
X_UPWM_UPWM3_U69         0 UPWM_UPWM3_PRE_RAMP d_d1 PARAMS:
X_UPWM_UPWM3_U25         INIT UPWM_UPWM3_N16753948 UPWM_UPWM3_CTRL
+  AND2_BASIC_GEN PARAMS: VDD=1 VSS=0 VTHRESH=500E-3
V_UPWM_UPWM3_V44         UPWM_UPWM3_N16747357 0 1
R_UPWM_UPWM3_R3         0 UPWM_UPWM3_PRE_RAMP  1G  
E_UPWM_UPWM3_ABM3         PWM11 0 VALUE { IF(V(UPWM_UPWM3_RAMP) >=
+  1-V(UPWM_PWM_VAL11) & V(INIT)>0.5,1,0)    }
X_UPWM_UPWM3_U68         UPWM_UPWM3_PRE_RAMP UPWM_UPWM3_N16747357 d_d1 PARAMS:
C_UPWM_UPWM3_C1         0 UPWM_UPWM3_PRE_RAMP  1n  TC=0,0 
X_UPWM_UPWM3_U44         UPWM_UPWM3_N16754427 UPWM_UPWM3_N16754549 one_shot
+  PARAMS:  T=10  
X_UPWM_UPWM3_U34         UPWM_UPWM3_N16754549 UPWM_UPWM3_N16753948
+  INV_BASIC_GEN PARAMS: VDD=1 VSS=0 VTHRESH=500E-3
G_UPWM_UPWM3_ABMII2         UPWM_UPWM3_N16747357 UPWM_UPWM3_PRE_RAMP VALUE {
+  IF(V(UPWM_UPWM3_CTRL) > 0.5,29u,0)    }
E_UPWM_UPWM3_ABM4         UPWM_UPWM3_N16754427 0 VALUE {
+  IF(V(UPWM_UPWM3_PRE_RAMP) >=1,1,0)    }
E_UPWM_UPWM3_ABM5         UPWM_UPWM3_RAMP 0 VALUE {
+  LIMIT(V(UPWM_UPWM3_PRE_RAMP),0,1)    }
G_UPWM_UPWM3_ABMII3         UPWM_UPWM3_PRE_RAMP 0 VALUE { IF(V(UPWM_UPWM3_CTRL)
+  < 0.5,1,0)    }
E_UPWM_U12_ABM13         UPWM_U12_OUT_3BITS_DTHR 0 VALUE {
+  V(UPWM_U12_OUT_12BITS)-8*V(UPWM_U12_OUT_9BITS)    }
E_UPWM_U12_ABM14         UPWM_PWM_VAL11 0 VALUE { IF(V(UPWM_U12_CLO_8) <0.1 |
+  V(UPWM_U12_BRI_8)<0.1, -0.00001,  
+ +IF(V(UPWM_U12_CLO_8)>254.5 &
+  V(UPWM_U12_BRI_8)>254.5,1.0001,V(UPWM_U12_PRE_PWM)))   }
E_UPWM_U12_ABM5         UPWM_U12_CLO_8 0 VALUE { IF(V(LED_BANK_EN3) <
+  0.5,V(COLOR11),V(BANK_C_COLOR))    }
E_UPWM_U12_ABM7         UPWM_U12_CLO_12BITS 0 VALUE {
+  V(UPWM_U12_CLO_8)*16+floor(V(UPWM_U12_CLO_8)/16)    }
X_UPWM_U12_U1         UPWM_U12_BRI_8 0 UPWM_U12_BRIGH_LOG_12BITS 0
+  ETABLE_8_TO_12BIT 
E_UPWM_U12_ABM9         UPWM_U12_BRIGH_12BITS 0 VALUE { IF(V(LOG_SCALE_EN) >
+  0.5,V(UPWM_U12_BRIGH_LOG_12BITS),V(UPWM_U12_BRIGH_LINEAR_12BITS))    }
E_UPWM_U12_ABM12         UPWM_U12_OUT_9BITS 0 VALUE {
+  floor(V(UPWM_U12_OUT_12BITS)/8)    }
E_UPWM_U12_ABM8         UPWM_U12_BRIGH_LINEAR_12BITS 0 VALUE {
+  V(UPWM_U12_BRI_8)*16+floor(V(UPWM_U12_BRI_8)/16)    }
E_UPWM_U12_ABM6         UPWM_U12_BRI_8 0 VALUE { IF(V(LED_BANK_EN3) <
+  0.5,V(BRIGHT3),V(BANK_BRIGHTNESS))    }
E_UPWM_U12_ABM11         UPWM_U12_PRE_PWM 0 VALUE { IF(V(PWM_DITHERING_EN)
+  <0.5, V(UPWM_U12_OUT_12BITS)/4095,  
+ +(V(UPWM_U12_OUT_9BITS)+V(UPWM_U12_OUT_3BITS_DTHR)/8)/512)   }
E_UPWM_U12_ABM10         UPWM_U12_OUT_12BITS 0 VALUE {
+  floor((V(UPWM_U12_CLO_12BITS)*V(UPWM_U12_BRIGH_12BITS))/4096)    }
E_UPWM_UPWM2_ABM2         PWM7 0 VALUE { IF((V(UPWM_UPWM2_RAMP) >=
+  0.5-V(UPWM_PWM_VAL7)/2) & V(INIT) > 0.5 &  
+ (V(UPWM_UPWM2_RAMP) <= 0.5+V(UPWM_PWM_VAL7)/2),1,0)   }
E_UPWM_UPWM2_ABM1         PWM6 0 VALUE { IF(V(UPWM_PWM_VAL6) >=
+  V(UPWM_UPWM2_RAMP) & V(INIT) > 0.5,1,0)    }
X_UPWM_UPWM2_U69         0 UPWM_UPWM2_PRE_RAMP d_d1 PARAMS:
X_UPWM_UPWM2_U25         INIT UPWM_UPWM2_N16753948 UPWM_UPWM2_CTRL
+  AND2_BASIC_GEN PARAMS: VDD=1 VSS=0 VTHRESH=500E-3
V_UPWM_UPWM2_V44         UPWM_UPWM2_N16747357 0 1
R_UPWM_UPWM2_R3         0 UPWM_UPWM2_PRE_RAMP  1G  
E_UPWM_UPWM2_ABM3         PWM8 0 VALUE { IF(V(UPWM_UPWM2_RAMP) >=
+  1-V(UPWM_PWM_VAL8) & V(INIT)>0.5,1,0)    }
X_UPWM_UPWM2_U68         UPWM_UPWM2_PRE_RAMP UPWM_UPWM2_N16747357 d_d1 PARAMS:
C_UPWM_UPWM2_C1         0 UPWM_UPWM2_PRE_RAMP  1n  TC=0,0 
X_UPWM_UPWM2_U44         UPWM_UPWM2_N16754427 UPWM_UPWM2_N16754549 one_shot
+  PARAMS:  T=10  
X_UPWM_UPWM2_U34         UPWM_UPWM2_N16754549 UPWM_UPWM2_N16753948
+  INV_BASIC_GEN PARAMS: VDD=1 VSS=0 VTHRESH=500E-3
G_UPWM_UPWM2_ABMII2         UPWM_UPWM2_N16747357 UPWM_UPWM2_PRE_RAMP VALUE {
+  IF(V(UPWM_UPWM2_CTRL) > 0.5,29u,0)    }
E_UPWM_UPWM2_ABM4         UPWM_UPWM2_N16754427 0 VALUE {
+  IF(V(UPWM_UPWM2_PRE_RAMP) >=1,1,0)    }
E_UPWM_UPWM2_ABM5         UPWM_UPWM2_RAMP 0 VALUE {
+  LIMIT(V(UPWM_UPWM2_PRE_RAMP),0,1)    }
G_UPWM_UPWM2_ABMII3         UPWM_UPWM2_PRE_RAMP 0 VALUE { IF(V(UPWM_UPWM2_CTRL)
+  < 0.5,1,0)    }
X_U12CH_U2_U12         PWM3 U12CH_U2_N16779473 U12CH_U2_N16830474
+  AND2_BASIC_GEN PARAMS: VDD=1 VSS=0 VTHRESH=500E-3
X_U12CH_U2_U66         0 U12CH_U2_N16912741 d_d1 PARAMS:
X_U12CH_U2_U15         U12CH_U2_N16830474 U12CH_U2_N16829050 U12CH_U2_N16907448
+  AND2_BASIC_GEN PARAMS: VDD=1 VSS=0 VTHRESH=500E-3
G_U12CH_U2_G2         U12CH_U2_N16912741 0 N17063120 0 1
X_U12CH_U2_U13         N19703649 U12CH_U2_N16779473 INV_BASIC_GEN PARAMS: VDD=1
+  VSS=0 VTHRESH=500E-3
X_U12CH_U2_U17         TSD U12CH_U2_N16829050 INV_BASIC_GEN PARAMS: VDD=1 VSS=0
+  VTHRESH=500E-3
X_U12CH_U2_S3    U12CH_U2_N16907448 0 U12CH_U2_N16820009 U12CH_U2_N16909027
+  Channel_U12CH_U2_S3 
X_U12CH_U2_S4    ISEL 0 U12CH_U2_N16909027 U12CH_U2_N16912741
+  Channel_U12CH_U2_S4 
X_U12CH_U2_H1    OUT3 U12CH_U2_N16820009 U12CH_U2_I_SENSE 0 Channel_U12CH_U2_H1
+  
X_U12CH_U1_U12         PWM0 U12CH_U1_N16779473 U12CH_U1_N16830474
+  AND2_BASIC_GEN PARAMS: VDD=1 VSS=0 VTHRESH=500E-3
X_U12CH_U1_U66         0 U12CH_U1_N16912741 d_d1 PARAMS:
X_U12CH_U1_U15         U12CH_U1_N16830474 U12CH_U1_N16829050 U12CH_U1_N16907448
+  AND2_BASIC_GEN PARAMS: VDD=1 VSS=0 VTHRESH=500E-3
G_U12CH_U1_G2         U12CH_U1_N16912741 0 N17063120 0 1
X_U12CH_U1_U13         N19703649 U12CH_U1_N16779473 INV_BASIC_GEN PARAMS: VDD=1
+  VSS=0 VTHRESH=500E-3
X_U12CH_U1_U17         TSD U12CH_U1_N16829050 INV_BASIC_GEN PARAMS: VDD=1 VSS=0
+  VTHRESH=500E-3
X_U12CH_U1_S3    U12CH_U1_N16907448 0 U12CH_U1_N16820009 U12CH_U1_N16909027
+  Channel_U12CH_U1_S3 
X_U12CH_U1_S4    ISEL 0 U12CH_U1_N16909027 U12CH_U1_N16912741
+  Channel_U12CH_U1_S4 
X_U12CH_U1_H1    OUT0 U12CH_U1_N16820009 U12CH_U1_I_SENSE 0 Channel_U12CH_U1_H1
+  
X_U12CH_U9_U12         PWM7 U12CH_U9_N16779473 U12CH_U9_N16830474
+  AND2_BASIC_GEN PARAMS: VDD=1 VSS=0 VTHRESH=500E-3
X_U12CH_U9_U66         0 U12CH_U9_N16912741 d_d1 PARAMS:
X_U12CH_U9_U15         U12CH_U9_N16830474 U12CH_U9_N16829050 U12CH_U9_N16907448
+  AND2_BASIC_GEN PARAMS: VDD=1 VSS=0 VTHRESH=500E-3
G_U12CH_U9_G2         U12CH_U9_N16912741 0 N17063120 0 1
X_U12CH_U9_U13         N19703649 U12CH_U9_N16779473 INV_BASIC_GEN PARAMS: VDD=1
+  VSS=0 VTHRESH=500E-3
X_U12CH_U9_U17         TSD U12CH_U9_N16829050 INV_BASIC_GEN PARAMS: VDD=1 VSS=0
+  VTHRESH=500E-3
X_U12CH_U9_S3    U12CH_U9_N16907448 0 U12CH_U9_N16820009 U12CH_U9_N16909027
+  Channel_U12CH_U9_S3 
X_U12CH_U9_S4    ISEL 0 U12CH_U9_N16909027 U12CH_U9_N16912741
+  Channel_U12CH_U9_S4 
X_U12CH_U9_H1    OUT7 U12CH_U9_N16820009 U12CH_U9_I_SENSE 0 Channel_U12CH_U9_H1
+  
X_U12CH_U4_U12         PWM4 U12CH_U4_N16779473 U12CH_U4_N16830474
+  AND2_BASIC_GEN PARAMS: VDD=1 VSS=0 VTHRESH=500E-3
X_U12CH_U4_U66         0 U12CH_U4_N16912741 d_d1 PARAMS:
X_U12CH_U4_U15         U12CH_U4_N16830474 U12CH_U4_N16829050 U12CH_U4_N16907448
+  AND2_BASIC_GEN PARAMS: VDD=1 VSS=0 VTHRESH=500E-3
G_U12CH_U4_G2         U12CH_U4_N16912741 0 N17063120 0 1
X_U12CH_U4_U13         N19703649 U12CH_U4_N16779473 INV_BASIC_GEN PARAMS: VDD=1
+  VSS=0 VTHRESH=500E-3
X_U12CH_U4_U17         TSD U12CH_U4_N16829050 INV_BASIC_GEN PARAMS: VDD=1 VSS=0
+  VTHRESH=500E-3
X_U12CH_U4_S3    U12CH_U4_N16907448 0 U12CH_U4_N16820009 U12CH_U4_N16909027
+  Channel_U12CH_U4_S3 
X_U12CH_U4_S4    ISEL 0 U12CH_U4_N16909027 U12CH_U4_N16912741
+  Channel_U12CH_U4_S4 
X_U12CH_U4_H1    OUT4 U12CH_U4_N16820009 U12CH_U4_I_SENSE 0 Channel_U12CH_U4_H1
+  
X_U12CH_U5_U12         PWM2 U12CH_U5_N16779473 U12CH_U5_N16830474
+  AND2_BASIC_GEN PARAMS: VDD=1 VSS=0 VTHRESH=500E-3
X_U12CH_U5_U66         0 U12CH_U5_N16912741 d_d1 PARAMS:
X_U12CH_U5_U15         U12CH_U5_N16830474 U12CH_U5_N16829050 U12CH_U5_N16907448
+  AND2_BASIC_GEN PARAMS: VDD=1 VSS=0 VTHRESH=500E-3
G_U12CH_U5_G2         U12CH_U5_N16912741 0 N17063120 0 1
X_U12CH_U5_U13         N19703649 U12CH_U5_N16779473 INV_BASIC_GEN PARAMS: VDD=1
+  VSS=0 VTHRESH=500E-3
X_U12CH_U5_U17         TSD U12CH_U5_N16829050 INV_BASIC_GEN PARAMS: VDD=1 VSS=0
+  VTHRESH=500E-3
X_U12CH_U5_S3    U12CH_U5_N16907448 0 U12CH_U5_N16820009 U12CH_U5_N16909027
+  Channel_U12CH_U5_S3 
X_U12CH_U5_S4    ISEL 0 U12CH_U5_N16909027 U12CH_U5_N16912741
+  Channel_U12CH_U5_S4 
X_U12CH_U5_H1    OUT2 U12CH_U5_N16820009 U12CH_U5_I_SENSE 0 Channel_U12CH_U5_H1
+  
X_U12CH_U10_U12         PWM10 U12CH_U10_N16779473 U12CH_U10_N16830474
+  AND2_BASIC_GEN PARAMS: VDD=1 VSS=0 VTHRESH=500E-3
X_U12CH_U10_U66         0 U12CH_U10_N16912741 d_d1 PARAMS:
X_U12CH_U10_U15         U12CH_U10_N16830474 U12CH_U10_N16829050
+  U12CH_U10_N16907448 AND2_BASIC_GEN PARAMS: VDD=1 VSS=0 VTHRESH=500E-3
G_U12CH_U10_G2         U12CH_U10_N16912741 0 N17063120 0 1
X_U12CH_U10_U13         N19703649 U12CH_U10_N16779473 INV_BASIC_GEN PARAMS:
+  VDD=1 VSS=0 VTHRESH=500E-3
X_U12CH_U10_U17         TSD U12CH_U10_N16829050 INV_BASIC_GEN PARAMS: VDD=1
+  VSS=0 VTHRESH=500E-3
X_U12CH_U10_S3    U12CH_U10_N16907448 0 U12CH_U10_N16820009 U12CH_U10_N16909027
+  Channel_U12CH_U10_S3 
X_U12CH_U10_S4    ISEL 0 U12CH_U10_N16909027 U12CH_U10_N16912741
+  Channel_U12CH_U10_S4 
X_U12CH_U10_H1    OUT10 U12CH_U10_N16820009 U12CH_U10_I_SENSE 0
+  Channel_U12CH_U10_H1 
X_U12CH_U6_U12         PWM5 U12CH_U6_N16779473 U12CH_U6_N16830474
+  AND2_BASIC_GEN PARAMS: VDD=1 VSS=0 VTHRESH=500E-3
X_U12CH_U6_U66         0 U12CH_U6_N16912741 d_d1 PARAMS:
X_U12CH_U6_U15         U12CH_U6_N16830474 U12CH_U6_N16829050 U12CH_U6_N16907448
+  AND2_BASIC_GEN PARAMS: VDD=1 VSS=0 VTHRESH=500E-3
G_U12CH_U6_G2         U12CH_U6_N16912741 0 N17063120 0 1
X_U12CH_U6_U13         N19703649 U12CH_U6_N16779473 INV_BASIC_GEN PARAMS: VDD=1
+  VSS=0 VTHRESH=500E-3
X_U12CH_U6_U17         TSD U12CH_U6_N16829050 INV_BASIC_GEN PARAMS: VDD=1 VSS=0
+  VTHRESH=500E-3
X_U12CH_U6_S3    U12CH_U6_N16907448 0 U12CH_U6_N16820009 U12CH_U6_N16909027
+  Channel_U12CH_U6_S3 
X_U12CH_U6_S4    ISEL 0 U12CH_U6_N16909027 U12CH_U6_N16912741
+  Channel_U12CH_U6_S4 
X_U12CH_U6_H1    OUT5 U12CH_U6_N16820009 U12CH_U6_I_SENSE 0 Channel_U12CH_U6_H1
+  
X_U12CH_U11_U12         PWM8 U12CH_U11_N16779473 U12CH_U11_N16830474
+  AND2_BASIC_GEN PARAMS: VDD=1 VSS=0 VTHRESH=500E-3