*$
*LP5569
*****************************************************************************
* (C) Copyright 2017 Texas Instruments Incorporated. All rights reserved.                                            
*****************************************************************************
** This model is designed as an aid for customers of Texas Instruments.
** TI and its licensors and suppliers make no warranties, either expressed
** or implied, with respect to this model, including the warranties of 
** merchantability or fitness for a particular purpose.  The model is
** provided solely on an "as is" basis.  The entire risk as to its quality
** and performance is with the customer
*****************************************************************************
*
* This model is subject to change without notice. Texas Instruments
* Incorporated is not responsible for updating this model.
*
*****************************************************************************
*
** Released by: WEBENCH Design Center, Texas Instruments Inc.
* Part: LP5569
* Date: 04SEP2017
* Model Type:  TRANSIENT
* Simulator: PSPICE
* Simulator Version: 16.2.0.p001
* EVM Order Number: BOOST-LP5569EVM
* EVM Users Guide: SNVU564
* Datasheet: SNVSAP8 –JULY 2017	
*
* Model Version: Final 1.10
*
*****************************************************************************
*
* Updates:
*
* Final 1.10
* BugFix: Modified Auto mode implementation as per the device - In auto mode,
* once charge pump enters 1.5x mode, it does not return to 1x mode.
*
* Final 1.00
* Release to Web.
*
*****************************************************************************
*
* Model Usage Notes:
*
* 1. The following registers have been modelled as parameters - LEDx_CONTROL,
*	 LEDX_CURRENT, LEDx_PWM, CONFIG, MISC, MISC2.
* 2. Faults are detected 1ms after enable in the model.
* 3. Operating current and shutdown current have not been modeled.
* 4. PWM engine and related features have not been modelled.
* 5. Thermal characteristics, efficiency have not been modelled.
*
*****************************************************************************
.SUBCKT LP5569_TRANS ADDR AGND C1M C1P C2M C2P CLK EN_PWM GPIO_TRIG_INT LED0
+  LED1 LED2 LED3 LED4 LED5 LED6 LED7 LED8 PAD PGND SCL SDA V1p8 VIN VOUT PARAMS:
+  LED2_CURRENT=0 LED3_CONTROL=0 LED8_CONTROL=0 CONFIG=0 MISC2=0 LED1_CURRENT=0
+  LED6_CURRENT=0 LED7_CONTROL=0 LED2_CONTROL=0 LED0_CURRENT=0 LED5_CURRENT=0
+  LED0_PWM=0 LED1_CONTROL=0 LED6_CONTROL=0 LED1_PWM=0 LED2_PWM=0 LED3_PWM=0
+  LED4_CURRENT=0 LED5_CONTROL=0 LED4_PWM=0 LED0_CONTROL=0 LED5_PWM=0 LED6_PWM=0
+  LED3_CURRENT=0 LED8_CURRENT=0 LED7_PWM=0 LED4_CONTROL=0 LED8_PWM=0 MISC=0
+  LED7_CURRENT=0
X_U2 CP_1P5X_FORCE CP_1X CP_DISABLE CP_DISCHARGE_DIS EN_INT 0 LED0 LED1 LED2
+  LED3 LED4 LED5 LED6 LED7 LED8 EN_PWM PWM_EN_DOWN PWM_INT V1P8 VIN VOUT
+  HOUSEKEEPING PARAMS: CONFIG={CONFIG} MISC2={MISC2} MISC={MISC}
X_U7 0 LED0 LED1 LED2 LED3 LED4 LED5 LED6 LED7 LED8 PWM_OUT_P0 PWM_OUT_P1
+  PWM_OUT_P2 PWM_OUT_P3 PWM_OUT_P4 PWM_OUT_P5 PWM_OUT_P6 PWM_OUT_P7 PWM_OUT_P8
+  PWMTOCURRENT PARAMS: LED2_CURRENT={LED2_CURRENT} LED6_CURRENT={LED6_CURRENT}
+  LED1_CURRENT={LED1_CURRENT} LED5_CURRENT={LED5_CURRENT} LED0_CURRENT=
+ {LED0_CURRENT} LED4_CURRENT={LED4_CURRENT} LED8_CURRENT={LED8_CURRENT}
+  LED3_CURRENT={LED3_CURRENT} LED7_CURRENT={LED7_CURRENT}
X_U1 EN_INT PWM_DECODE 0 PWM_INT V1P8 PULSETODUTY  
X_U8 EN_INT 0 PWM_EN_DOWN PWM_DECODE PWM_OUT_P0 PWM_OUT_P1 PWM_OUT_P2 V1P8
+  CONTROL_PWM PARAMS: LED2_CONTROL={LED2_CONTROL} LED0_PWM={LED0_PWM}
+  LED1_CONTROL={LED1_CONTROL} LED1_PWM={LED1_PWM} LED2_PWM={LED2_PWM}
+  LED0_CONTROL={LED0_CONTROL}
X_U6 CP_1X C1M C1P C2M C2P CP_1P5X_FORCE CP_DISABLE CP_DISCHARGE_DIS EN_INT 0
+  V1P8 VIN VOUT CP  
X_U3 EN_INT 0 PWM_EN_DOWN PWM_DECODE PWM_OUT_P3 PWM_OUT_P4 PWM_OUT_P5 V1P8
+  CONTROL_PWM PARAMS: LED2_CONTROL={LED5_CONTROL} LED0_PWM={LED3_PWM} LED1_PWM=
+ {LED4_PWM} LED1_CONTROL={LED4_CONTROL} LED2_PWM={LED5_PWM} LED0_CONTROL=
+ {LED3_CONTROL}
X_U4 EN_INT 0 PWM_EN_DOWN PWM_DECODE PWM_OUT_P6 PWM_OUT_P7 PWM_OUT_P8 V1P8
+  CONTROL_PWM PARAMS: LED2_CONTROL={LED8_CONTROL} LED0_PWM={LED6_PWM} LED1_PWM=
+ {LED7_PWM} LED1_CONTROL={LED7_CONTROL} LED2_PWM={LED8_PWM} LED0_CONTROL=
+ {LED6_CONTROL}
.ENDS LP5569_TRANS
*$
.SUBCKT CP 1x_EN C1N C1P C2N C2P cp_1p5x_force cp_disable cp_discharge_dis EN
+  GND VDD VIN VOUT  
X_U28         VOUT N16810637 d_d1 PARAMS:
X_U17         PH2_INT PASS_INT PH2_PASS OR2_BASIC_GEN PARAMS: VDD=1 VSS=0
+  VTHRESH=500E-3
V_V21         N16948561 GND 4.8
X_U6_S9    CP_DISCHARGE GND N16855054 GND CP_U6_S9 
E_ABM6         N16810637 0 VALUE { IF(V(N16810635)<0.5 ,4.5,5.5)    }
R_R6         N16803502 PASS_CL  1  
E_ABM15         CP_DISCHARGE 0 VALUE { IF(V(CP_DISCHARGE_DIS)>0.5,1, V(EN_INT))
+     }
M_M7         N1030159 VIN_G2 VIN_CL VIN_CL NMOS_SIMPLE           
X_U6_SS6    N1029039 GND N1029153 N1029039 CP_U6_SS6 
V_V22         VIN N16900912 0.5
X_U49         N1029413 CLK PH1_INT NOR2_BASIC_GEN PARAMS: VDD=1 VSS=0
+  VTHRESH=500E-3
X_U21         N16900912 VOUT N169009203 N16803502 COMPHYS_BASIC_GEN PARAMS:
+  VDD=1 VSS=0 VTHRESH=0.5
X_U6_S7    PH1_PASS GND C2N GND CP_U6_S7 
E_ABM16         N16919893 0 VALUE { IF(V(EN_INT)>0.5,1-V(PASS_INT),0)    }
R_R5         CLK N1029413  10  
V_V23         N169009203 GND 0.01
E_ABM13         N1030111 0 VALUE { IF( V(CP_1P5X_FORCE)<0.5,V(1X_EN),0)    }
X_U20         PH1_INT PASS_INT PH1_PASS OR2_BASIC_GEN PARAMS: VDD=1 VSS=0
+  VTHRESH=500E-3
V_V25         VOUT N16855054 0Vdc
X_U45         N1029039 N1029153 d_d1 PARAMS:
E_ABM14         EN_INT 0 VALUE { IF(V(CP_DISABLE)<0.5 & V(EN) > 0.5,1,0)    }
C_C4         N1029039 GND  1n IC=0 
X_U6_S1    PH1_PASS GND C1P VOUT CP_U6_S1 
V_V24         N16910997 GND  
+PULSE 0 1 0 1n 1n 398n 800n
X_U6_S5    PH1_PASS GND C2P VIN CP_U6_S5 
E_E8         N1030159 0 VIN 0 1
X_U50         GND N16910997 N16919893 CLK MUX2_BASIC_GEN PARAMS: VDD=1 VSS=0
+  VTHRESH=0.5
E_ABM5         N1030163 0 VALUE { IF(V(PASS_INT)<0.5 & V(PH1_INT)>0.5,1,0)    }
X_U29         VIN N16810672 N16810655 N16810635 COMPHYS_BASIC_GEN PARAMS: VDD=1
+  VSS=0 VTHRESH=0.5
X_U25         N1030869 EN PASS_INT AND2_BASIC_GEN PARAMS: VDD=1 VSS=0
+  VTHRESH=500E-3
E_E7         VIN_G2 VIN_CL N1029043 GND 1
X_U6_S6    N16953141 GND VOUT C2P CP_U6_S6 
V_V18         N16810655 GND 0.3
X_U6_S3    N1030163 GND C1N VIN_CL CP_U6_S3 
C_C13         GND N1029413  1n  
E_GAIN1         N1029043 0 VALUE {100u * V(N1029039)}
V_V19         N16810672 GND 4.8
X_U19         N1030111 PASS_CL N1030385 N1030869 OR3_BASIC_GEN PARAMS: VDD=1
+  VSS=0 VTHRESH=500E-3
X_U6_S2    PH2_PASS GND VIN_CL C1P CP_U6_S2 
E_ABM17         N16953141 0 VALUE { IF(V(PASS_INT)>0.5,0,V(PH2_INT))    }
C_C14         GND PASS_CL  1n  
X_U30         VIN N16948561 N16948533 N1030385 COMPHYS_BASIC_GEN PARAMS: VDD=1
+  VSS=0 VTHRESH=0.5
X_U31         CLK N1029413 PH2_INT AND2_BASIC_GEN PARAMS: VDD=1 VSS=0
+  VTHRESH=500E-3
X_U27         GND VOUT d_d1 PARAMS:
E_ABM12         N1029153 0 VALUE { IF(V(EN_INT)<0.5, 0, 1)    }
V_V20         N16948533 GND 0.3
X_U6_S4    PH2_PASS GND C2N C1N CP_U6_S4 
.ENDS CP
*$
.SUBCKT CONTROL_PWM EN GND PWM_DOWN PWM_IN PWM_OUT_P1 PWM_OUT_P2 PWM_OUT_P3 VDD
+  PARAMS: LED2_CONTROL=0 LED0_PWM=0 LED1_PWM=0 LED1_CONTROL=0 LED2_PWM=0
+  LED0_CONTROL=0
X_U15         N694355 EN PWM_OUT_P3 AND2_BASIC_GEN PARAMS: VDD=1 VSS=0
+  VTHRESH=500E-3
X_U6 EXP_EN1 GND EN PWM1 PWM_DOWN PWM_IN LED_RATIO_EN1 PWM_REG_EN1 VDD REGTOPWM
+  PARAMS: LED_PWM={LED1_PWM}
X_U7 EXP_EN2 GND EN PWM2 PWM_DOWN PWM_IN LED_RATIO_EN2 PWM_REG_EN2 VDD REGTOPWM
+  PARAMS: LED_PWM={LED2_PWM}
X_U11         PWM1 EN PWM_IN_P2 AND2_BASIC_GEN PARAMS: VDD=1 VSS=0
+  VTHRESH=500E-3
X_U13         PWM0 EN PWM_OUT_P1 AND2_BASIC_GEN PARAMS: VDD=1 VSS=0
+  VTHRESH=500E-3
X_U1 EN EXP_EN0 GND LED_RATIO_EN0 PWM_REG_EN0 LED_CONTROL PARAMS: LED_CONTROL=
+ {LED0_CONTROL}
X_U2 EN EXP_EN1 GND LED_RATIO_EN1 PWM_REG_EN1 LED_CONTROL PARAMS: LED_CONTROL=
+ {LED1_CONTROL}
X_U3 EN EXP_EN2 GND LED_RATIO_EN2 PWM_REG_EN2 LED_CONTROL PARAMS: LED_CONTROL=
+ {LED2_CONTROL}
X_U5 EXP_EN0 GND EN PWM0 PWM_DOWN PWM_IN LED_RATIO_EN0 PWM_REG_EN0 VDD REGTOPWM
+  PARAMS: LED_PWM={LED0_PWM}
X_U16         N731502 EN PWM_OUT_P2 AND2_BASIC_GEN PARAMS: VDD=1 VSS=0
+  VTHRESH=500E-3
X_U4 GND PWM_DOWN PWM_IN_P2 PWM_IN_P3 N731502 N694355 VDD PHASE_SHIFT_DIM  
X_U12         PWM2 EN PWM_IN_P3 AND2_BASIC_GEN PARAMS: VDD=1 VSS=0
+  VTHRESH=500E-3
.ENDS CONTROL_PWM
*$
.SUBCKT PHASE_SHIFT_DIM GND PWM_DOWN PWM_IN_P2 PWM_IN_P3 PWM_OUT_P2 PWM_OUT_P3
+  VDD  
C_C5         GND N668887  1.443u IC=0 
X_U18         LATCH_OFF3 PWM_DOWN N829261 OR2_BASIC_GEN PARAMS: VDD=1 VSS=0
+  VTHRESH=500E-3
X_U14         N807691 N829261 PWM_OUT_P3 N674088 srlatchrhp_basic_gen PARAMS:
+  VDD=1 VSS=0 VTHRESH=0.5
C_C7         GND N807703  0.014u IC=0 
C_C10         GND OFF_P3  1n IC=0 
X_U4         PWM_IN_P2 N668805 INV_BASIC_GEN PARAMS: VDD=1 VSS=0 VTHRESH=500E-3
X_U2         PWM_IN_P2 N668571 one_shot PARAMS:  T=200  
X_U13         N807703 N807691 BUF_BASIC_GEN PARAMS: VDD=1 VSS=0 VTHRESH=0.5
X_U8         N668887 PWM_OUT_P2 BUF_BASIC_GEN PARAMS: VDD=1 VSS=0 VTHRESH=0.5
X_U6         PWM_IN_P3 N684001 one_shot PARAMS:  T=200  
X_U8_U4_S4    LATCH_OFF2 GND N668887 GND PHASE_SHIFT_DIM_U8_U4_S4 
X_U11         N674128 N674102 d_d1 PARAMS:
C_C3         GND N668533  1.443u IC=0 
R_R3         N668809 OFF_P2  1m  
X_U5         N668571 N668455 BUF_DELAY_BASIC_GEN PARAMS: VDD=1 VSS=0
+  VTHRESH=0.5 DELAY=80n
C_C8         GND N807691  1n IC=0 
X_U7         N684001 N683889 BUF_DELAY_BASIC_GEN PARAMS: VDD=1 VSS=0
+  VTHRESH=0.5 DELAY=80n
C_C6         GND PWM_OUT_P2  1n IC=0 
E_ABM5         N807687 0 VALUE { IF(V(N674102)>0.5,1,0)    }
C_C2         GND OFF_P2  1n IC=0 
E_ABM3         N668913 0 VALUE { IF(V(N668533)>0.5,1,0)    }
E_ABM4         N674128 0 VALUE { IF(V(PWM_IN_P3)>0.5,1.0005,0)    }
G_ABMII5         VDD N668425 VALUE { {V(N668805)*1n}    }
G_G4         N674128 N674102 VALUE { V(N674128, N674102)/
+ {LIMIT((V(OFF_P3))*1e6,0.1,100)} }
X_U9         N668641 N668533 d_d1 PARAMS:
X_U8_U4_S3    LATCH_OFF3 GND N807703 GND PHASE_SHIFT_DIM_U8_U4_S3 
G_G1         N668641 N668533 VALUE { V(N668641, N668533)/
+ {LIMIT((V(OFF_P2)/2)*1e6,1m,100)} }
X_U15         PWM_IN_P3 LATCH_OFF3 one_shot PARAMS:  T=20  
X_U8_U4_S1    N668455 GND N668425 GND PHASE_SHIFT_DIM_U8_U4_S1 
X_U8_U4_S2    N683889 GND N683859 GND PHASE_SHIFT_DIM_U8_U4_S2 
X_U10         N668887 N668913 d_d1 PARAMS:
X_U12         N807703 N807687 d_d1 PARAMS:
X_U3         PWM_IN_P2 LATCH_OFF2 one_shot PARAMS:  T=20  
R_R5         GND LATCH_OFF3  1G  
C_C1         GND N668425  1n IC=0 
E_ABM6         N684171 0 VALUE { IF(V(LATCH_OFF3)>0.5,V(N683859),V(OFF_P3))   
+  }
G_G2         N668913 N668887 VALUE { V(N668913, N668887)/
+ {LIMIT((V(OFF_P2)/2)*1e6,1m,100)} }
G_G3         N807687 N807703 VALUE { V(N807687, N807703)/
+ {LIMIT((V(OFF_P3))*1e8,10,10000)} }
R_R2         GND LATCH_OFF2  1G  
C_C4         GND N683859  1n IC=0 
X_U16         PWM_IN_P3 N684167 INV_BASIC_GEN PARAMS: VDD=1 VSS=0
+  VTHRESH=500E-3
R_R1         GND N668425  1G  
E_ABM2         N668641 0 VALUE { IF(V(PWM_IN_P2)>0.5,1,0)    }
G_ABMII6         VDD N683859 VALUE { {V(N684167)*1n}    }
C_C9         GND N674102  1.4u IC=0 
R_R6         N684171 OFF_P3  1m  
E_ABM1         N668809 0 VALUE { IF(V(LATCH_OFF2)>0.5,V(N668425),V(OFF_P2))   
+  }
.ENDS PHASE_SHIFT_DIM
*$
.SUBCKT LED_CONTROL EN exp_en GND led_ratio_en PWM_REG_EN PARAMS: LED_CONTROL=0
R_R2         GND N23635  1Meg  
X_U12         N688818 EN PWM_REG_EN AND2_BASIC_GEN PARAMS: VDD=1 VSS=0
+  VTHRESH=500E-3
X_U3         N23546 N23561 N23583 LED_RATIO_EN EXP_EN EXTERNAL_POWER N23631
+  N23635 N23496 ADC
V_V3         N23496 GND {LED_CONTROL}
R_R1         GND N23631  1Meg  
E_ABM2         N689905 0 VALUE { IF(V(N24417)>4.9 & V(N24417)<5.5,1,0)    }
E_ABM1         N24417 0 VALUE { 4*V(N23546) + 2*V(N23561) + V(N23583)    }
X_U11         N689905 N688818 INV_BASIC_GEN PARAMS: VDD=1 VSS=0 VTHRESH=500E-3
.ENDS LED_CONTROL
*$
.SUBCKT REGTOPWM EXP_EN GND OSC_EN PWM PWM_DOWN PWM_IN RATIO_EN REG_EN VDD
+  PARAMS: LED_PWM=0
E_ABM9         LED0_PWM 0 VALUE { IF(V(N1166892)>0.9965,1,V(N1166892))    }
E_ABM8         N1166892 0 VALUE {
+  IF(V(REG_EN)>0.5,V(N744851),IF(V(PWM_DOWN)>0.5, 0, V(N744851)*V(N744935)))   
+  }
V_V3         N1155126 GND 1
E_ABM1         LED_PWM_LINEAR 0 VALUE { V(LED_PWM_INT)/4080    }
X_U18         N1155132 OSC0_DIS BUF_DELAY_BASIC_GEN PARAMS: VDD=1 VSS=0
+  VTHRESH=0.5 DELAY=10n
C_C1         GND N1154962  1u IC=0 
E_ABM6         N744851 0 VALUE {
+  IF(V(EXP_EN)<0.5,V(LED_PWM_LINEAR),IF(V(RATIO_EN)<0.5  
+ ,V(LED_PWM_EXP),V(LED_PWM_LINEAR)))   }
X_U19         LED0_PWM N25439 PWM COMP_BASIC_GEN PARAMS: VDD=1 VSS=0
+  VTHRESH=0.5
X_U8_U6_S1    OSC0_DIS GND N1154962 GND REGTOPWM_U8_U6_S1 
E_ABM2         N25439 0 VALUE { LIMIT(V(N1154962),1u,.998)    }
E_ABM4         PWM_LINEAR 0 VALUE { V(PWM_IN)/4080    }
E_ABM5         PWM_EXP 0 VALUE { IF(V(PWM_IN)<1024,
+  (V(PWM_IN)*0.0244)/1600,(0.3886*(EXP(0.001355*(V(PWM_IN)))/100)))    }
V_LED_PWM         LED_PWM GND {LED_PWM}
E_ABM3         LED_PWM_EXP 0 VALUE { IF(V(LED_PWM_INT)<1024,
+  (V(LED_PWM_INT)*0.0244)/1600,(0.3886*(EXP(0.001355*(V(LED_PWM_INT)))/100)))   
+  }
X_U3         OSC_EN LED_PWM_INT LED_PWM 8BDECTO12BBIN
G_ABMII1         VDD N1154962 VALUE { IF(V(OSC_EN)>0.5,0.0195,0)    }
E_ABM7         N744935 0 VALUE {
+  IF(V(EXP_EN)<0.5,V(PWM_LINEAR),IF(V(RATIO_EN)>0.5  
+ ,V(PWM_EXP),V(PWM_LINEAR)))   }
X_U2         N1154962 N1155126 N1155132 COMP_BASIC_GEN PARAMS: VDD=1 VSS=0
+  VTHRESH=0.5
.ENDS REGTOPWM
*$
.SUBCKT PULSETODUTY CHIP_EN DUTY GND PWM_EN VDD  
C_C2         GND OFF  1n IC=0 
E_ABM4         N716594 0 VALUE { V(PWM_EN)*V(CHIP_EN)    }
C_C1         GND N716754  1n IC=0 
G_ABMII5         VDD N716754 VALUE { {V(N716690)*1n}    }
C_C4         GND N716892  1n IC=0 
X_U2         N716594 N717536 one_shot PARAMS:  T=200  
X_U6         N716594 N717076 one_shot PARAMS:  T=100  
E_ABM2         N716836 0 VALUE { IF(V(LATCH_OFF2)>0.5,V(N716892),V(PERIOD_INT))
+     }
X_U22         CHIP_EN DUTY DUTY_INT 8BDECTO12BBIN
X_U5         N717536 N716586 BUF_DELAY_BASIC_GEN PARAMS: VDD=1 VSS=0
+  VTHRESH=0.5 DELAY=80n
E_ABM5         DUTY_INT 0 VALUE { V(CHIP_EN)* 256*(
+  V(N717224)-V(OFF))/V(N717224)    }
R_R5         N716836 PERIOD_INT  1m  
X_U7         N717076 N716798 BUF_DELAY_BASIC_GEN PARAMS: VDD=1 VSS=0
+  VTHRESH=0.5 DELAY=20n
X_U3         N716594 LATCH_OFF2 one_shot PARAMS:  T=20  
X_U12         N716594 N716690 INV_BASIC_GEN PARAMS: VDD=1 VSS=0 VTHRESH=500E-3
C_C3         GND PERIOD_INT  1n IC=0 
X_U8         N716594 LATCH_PERIOD one_shot PARAMS:  T=5  
R_R2         GND LATCH_OFF2  1G  
X_U9         LATCH_PERIOD N716830 INV_BASIC_GEN PARAMS: VDD=1 VSS=0
+  VTHRESH=500E-3
X_U1_S1    N716586 GND N716754 GND PULSETODUTY_U1_S1 
G_ABMII6         VDD N716892 VALUE { {V(N716830)*1n}    }
E_ABM1         N716696 0 VALUE { IF(V(LATCH_OFF2)>0.5,V(N716754),V(OFF))    }
X_U1_S2    N716798 GND N716892 GND PULSETODUTY_U1_S2 
R_R3         N716696 OFF  1m  
E_LIMIT1         N717224 0 VALUE {LIMIT(V(PERIOD_INT),20u,0.02)}
.ENDS PULSETODUTY
*$
.SUBCKT PWMTOCURRENT GND LED0 LED1 LED2 LED3 LED4 LED5 LED6 LED7 LED8 PWM0 PWM1
+  PWM2 PWM3 PWM4 PWM5 PWM6 PWM7 PWM8 PARAMS: LED2_CURRENT=0 LED1_CURRENT=0
+  LED6_CURRENT=0 LED0_CURRENT=0 LED5_CURRENT=0 LED4_CURRENT=0 LED3_CURRENT=0
+  LED8_CURRENT=0 LED7_CURRENT=0
R_R17         N60270 N18468  4  
R_R8         GND N18432  1m  
G_G2         LED1 N17586 N17622 GND 1
E_ABM5         N57843 0 VALUE { IF(V(PWM4)>0.5,({LED4_CURRENT}*100u),0)    }
R_R16         N58846 N18330  4  
G_G9         LED8 N18554 N18606 GND 1
R_R5         GND N17984  1m  
D_D7         N18294 LED6 D_D2 
R_R10         N51878 N17780  4  
C_C2         GND N17780  1n  
D_D2         N17586 LED1 D_D2 
D_D3         N17744 LED2 D_D2 
D_D4         N17732 LED3 D_D2 
C_C10         GND N18606  1n  
E_ABM7         N58846 0 VALUE { IF(V(PWM6)>0.5,({LED6_CURRENT}*100u),0)    }
G_G6         LED5 N18138 N18174 GND 1
E_ABM2         N55566 0 VALUE { IF(V(PWM1)>0.5,({LED1_CURRENT}*100u),0)    }
C_C4         GND N17622  1n  
E_ABM4         N51878 0 VALUE { IF(V(PWM3)>0.5,({LED3_CURRENT}*100u),0)    }
D_D9         N18554 LED8 D_D2 
R_R18         N61089 N18606  4  
R_R7         GND N18294  1m  
G_G1         LED0 GND N17478 GND 1
R_R2         GND N17586  1m  
C_C5         GND N17822  1n  
R_R4         GND N17732  1m  
E_ABM9         N61089 0 VALUE { IF(V(PWM8)>0.5,({LED8_CURRENT}*100u),0)    }
R_R12         N55566 N17622  4  
E_ABM3         N56309 0 VALUE { IF(V(PWM2)>0.5,({LED2_CURRENT}*100u),0)    }
D_D6         N18138 LED5 D_D2 
R_R9         GND N18554  1m  
G_G8         LED7 N18432 N18468 GND 1
R_R13         N56309 N17822  4  
C_C6         GND N18174  1n  
D_D5         N17984 LED4 D_D2 
R_R3         GND N17744  1m  
E_ABM6         N57072 0 VALUE { IF(V(PWM5)>0.5,({LED5_CURRENT}*100u),0)    }
D_D1         GND LED0 D_D2 
G_G4         LED3 N17732 N17780 GND 1
R_R14         N57072 N18174  4  
R_R6         GND N18138  1m  
E_ABM1         N54455 0 VALUE { IF(V(PWM0)>0.5,({LED0_CURRENT}*100u),0)    }
D_D8         N18432 LED7 D_D2 
G_G5         LED4 N17984 N18036 GND 1
C_C3         GND N17478  1n  
C_C7         GND N18036  1n  
G_G3         LED2 N17744 N17822 GND 1
C_C9         GND N18468  1n  
R_R11         N54455 N17478  4  
E_ABM8         N60270 0 VALUE { IF(V(PWM7)>0.5,({LED7_CURRENT}*100u),0)    }
R_R15         N57843 N18036  4  
C_C8         GND N18330  1n  
G_G7         LED6 N18294 N18330 GND 1
.ENDS PWMTOCURRENT
*$ 
.SUBCKT HOUSEKEEPING cp_1p5x_force cp_1x_force cp_disable cp_discharge_dis
+  EN_INT GND LED0 LED1 LED2 LED3 LED4 LED5 LED6 LED7 LED8 PWM_EN PWM_EN_DOWN
+  PWM_INT VDD VIN VOUT PARAMS: MISC2=0 CONFIG=0 MISC=0
X_U65         N1493887 CP_1P5X_FORCE_INT N1492332 AND2_BASIC_GEN PARAMS: VDD=1
+  VSS=0 VTHRESH=500E-3
X_U30         LED7 VIN-1 N1166947 SHORT_7 COMPHYS_BASIC_GEN PARAMS: VDD=1 VSS=0
+  VTHRESH=0.5
R_R14         N1382257 N1383145  1k  
G_ABMII1         VDD PWM_EN_DOWN VALUE { IF(V(N1346966)>0.5,33.33u,-5)    }
X_U34         LED5 VIN-1 N1167113 SHORT_5 COMPHYS_BASIC_GEN PARAMS: VDD=1 VSS=0
+  VTHRESH=0.5
X_U59         N1444621 CP_RETURN_1X N1445324 AND2_BASIC_GEN PARAMS: VDD=1 VSS=0
+  VTHRESH=500E-3
V_V18         N1166913 GND 0.01
E_ABM5         CP_1X 0 VALUE { IF(V(N1166359)>0.9 & V(N1166359)<1.1,1,0)    }
C_C3         GND 1MS_OVER  1.443u  
C_C11         GND FORCE_0  1n  
X_U22         N1455205 CP_1P5X CP_1P5X_FORCE OR2_BASIC_GEN PARAMS: VDD=1 VSS=0
+  VTHRESH=500E-3
E_ABM24         VIN-1 0 VALUE { (V(VIN)-1)    }
X_U56         N1383145 N1382257 d_d1 PARAMS:
X_U40         HEADROOM LED2 HYSTERESIS N1183135 COMPHYS_BASIC_GEN PARAMS: VDD=1
+  VSS=0 VTHRESH=0.5
X_U55         LED_OPEN LED_SHORT N1343143 OR2_BASIC_GEN PARAMS: VDD=1 VSS=0
+  VTHRESH=500E-3
C_C1         GND PWM_EN_DOWN  1u IC=0 
C_C14         GND N1400289  0.1n  
E_ABM14         N1193210 0 VALUE { V(LED_HEADROOM0)*0.25    }
X_U37         LED2 VIN-1 N1167065 SHORT_2 COMPHYS_BASIC_GEN PARAMS: VDD=1 VSS=0
+  VTHRESH=0.5
X_U48         HEADROOM LED4 HYSTERESIS N1183637 COMPHYS_BASIC_GEN PARAMS: VDD=1
+  VSS=0 VTHRESH=0.5
V_V7         N11685393 GND 0.85
X_U33         LED4 VIN-1 N1166981 SHORT_4 COMPHYS_BASIC_GEN PARAMS: VDD=1 VSS=0
+  VTHRESH=0.5
X_U52         1MS_OVER EN_INT d_d1 PARAMS:
V_V21         N1166947 GND 0.01
R_R5         FORCE_7 N1183271  1  
R_R13         EN_INT N1400289  1.443k  
X_U24         1MS_OVER LED_OPEN_TEST_INT N1215360 AND2_BASIC_GEN PARAMS: VDD=1
+  VSS=0 VTHRESH=500E-3
E_ABM15         HEADROOM 0 VALUE {
+  IF(V(N1193210)<0.2,IF(V(LED_HEADROOM1)>0.5,0.3,0.2),0.25)    }
R_R8         FORCE_2 N1183135  1  
E_ABM6         CP_1P5X 0 VALUE { IF(V(N1166359)>1.9 & V(N1166359)<2.1,1,0)    }
X_U4         PWM_EN_DOWN VDD d_d1 PARAMS:
C_C6         GND FORCE_7  1n  
E_ABM22         LED_OPEN_TEST 0 VALUE { IF(V(N1215360)>0.5,1,0)    }
E_ABM26         LED_SHORT 0 VALUE { IF( V(N1167337)>0.5,V(LED_SHORT_INT),0)   
+  }
X_U45         CP_1P5X_FORCE_INT CP_1X_AUTO INV_BASIC_GEN PARAMS: VDD=1 VSS=0
+  VTHRESH=500E-3
V_V15         N1166463 GND {MISC}
X_U49         N1183351 N1269901 N1268068 HEADROOM_LOW COMPHYS_BASIC_GEN PARAMS:
+  VDD=1 VSS=0 VTHRESH=0.5
C_C15         GND N1383145  1.443u  
R_R7         FORCE_5 N1183711  1  
V_V23         N1166981 GND 0.01
E_ABM29         CP_1P5X_FORCE_INT 0 VALUE { IF(V(N1183481)>0.5,0,V(N1183675))  
+   }
X_U57         N1492332 N1446032 N1455205 CP_1X_FORCE srlatchrhp_basic_gen
+  PARAMS: VDD=1 VSS=0 VTHRESH=0.5
E_ABM7         CP_AUTO 0 VALUE { IF(V(N1166359)>2.9 & V(N1166359)<3.1,1,0)    }
V_V8         N1168379 GND 0.01
X_U41         HEADROOM LED6 HYSTERESIS N1183199 COMPHYS_BASIC_GEN PARAMS: VDD=1
+  VSS=0 VTHRESH=0.5
C_C9         GND FORCE_2  1n  
X_U5         GND PWM_EN_DOWN d_d1 PARAMS:
V_V17         N1167661 GND 0.01
X_U26         1MS_OVER LED_SHORT_TEST_INT N1167325 AND2_BASIC_GEN PARAMS: VDD=1
+  VSS=0 VTHRESH=500E-3
X_U36         LED1 VIN-1 N1166913 SHORT_1 COMPHYS_BASIC_GEN PARAMS: VDD=1 VSS=0
+  VTHRESH=0.5
E_ABM21         N1183351 0 VALUE { IF(V(FORCE_0)>0.5 | V(FORCE_1)>0.5 |
+  V(FORCE_2)>0.5 | V(FORCE_3)>0.5 | V(FORCE_4)>0.5  
+ | V(FORCE_5)>0.5 | V(FORCE_6)>0.5 | V(FORCE_7)>0.5 | V(FORCE_8)>0.5,1,0)   }
C_C8         GND FORCE_5  1n  
V_V6         N1169037 GND 1.25
X_U50         HEADROOM LED5 HYSTERESIS N1183711 COMPHYS_BASIC_GEN PARAMS: VDD=1
+  VSS=0 VTHRESH=0.5
C_C5         GND FORCE_8  1n  
X_U44         EN_INT N1183481 INV_BASIC_GEN PARAMS: VDD=1 VSS=0 VTHRESH=500E-3
X_U32         LED3 VIN-1 N1168379 SHORT_3 COMPHYS_BASIC_GEN PARAMS: VDD=1 VSS=0
+  VTHRESH=0.5
X_U1         VIN N1166633 N1166269 VIN_UVLO COMPHYS_BASIC_GEN PARAMS: VDD=1
+  VSS=0 VTHRESH=0.5
E_ABM2         N1509793 0 VALUE { IF(V(EN_INT)>0.5,1,0)    }
R_R9         FORCE_1 N1183071  1  
V_V2         N1166269 GND 0.1
X_U29         LED6 VIN-1 N1168039 SHORT_6 COMPHYS_BASIC_GEN PARAMS: VDD=1 VSS=0
+  VTHRESH=0.5
R_R15         N1509793 N1493887  1.443 TC=0,0 
X_U38         HEADROOM LED0 HYSTERESIS N1183007 COMPHYS_BASIC_GEN PARAMS: VDD=1
+  VSS=0 VTHRESH=0.5
C_C10         GND FORCE_1  1n  
X_U2         N1383145 N1343143 N1169583 N1167059 srlatchrhp_basic_gen PARAMS:
+  VDD=1 VSS=0 VTHRESH=0.5
X_U42         HEADROOM LED7 HYSTERESIS N1183271 COMPHYS_BASIC_GEN PARAMS: VDD=1
+  VSS=0 VTHRESH=0.5
E_ABM1         CHIP_EN 0 VALUE { IF(({CONFIG} > 63 & {CONFIG} < 128) | 
+ {CONFIG}>191,1,0)    }
C_C2         GND N1493887  0.1m  
E_ABM28         HYSTERESIS 0 VALUE {
+  (100+50*(2*V(LED_HEADROOM1)+V(LED_HEADROOM0)))*1m    }
X_U58         N1445324 CP_1X N1446032 OR2_BASIC_GEN PARAMS: VDD=1 VSS=0
+  VTHRESH=500E-3
X_U8         N1166159 N1166185 N1166191 LED_SHORT_TEST_INT LED_OPEN_TEST_INT
+  LED_HEADROOM1 LED_HEADROOM0 CP_DISCHARGE_DIS N1166149 ADC
V_V26         N1269901 GND .5
V_V19         N1167065 GND 0.01
X_U60         N1468269 N1467293 EN_INT AND2_BASIC_GEN PARAMS: VDD=1 VSS=0
+  VTHRESH=500E-3
V_V25         N1268068 GND 0.1
E_ABM25         LED_SHORT_INT 0 VALUE { IF(V(SHORT_0)>0.5 | V(SHORT_1)>0.5 |
+  V(SHORT_2)>0.5 | V(SHORT_3)>0.5 | V(SHORT_4)>0.5  
+ | V(SHORT_5)>0.5 | V(SHORT_6)>0.5 | V(SHORT_7)>0.5 | V(SHORT_8)>0.5,1,0)   }
X_U6         PWM_EN N1169037 N11685393 PWM_INT COMPHYS_BASIC_GEN PARAMS: VDD=1
+  VSS=0 VTHRESH=0.5
R_R12         FORCE_6 N1183199  1  
X_U63         EN_INT N1444621 INV_BASIC_GEN PARAMS: VDD=1 VSS=0 VTHRESH=500E-3
V_V1         N1166633 GND 2.3
X_U9         PWM_RISE N1394659 N1382257 N1396232 srlatchrhp_basic_gen PARAMS:
+  VDD=1 VSS=0 VTHRESH=0.5
E_ABM23         LED_OPEN 0 VALUE { IF( V(LED_OPEN_TEST)>0.5,V(HEADROOM_LOW),0) 
+    }
E_ABM27         N1167337 0 VALUE { IF(V(N1167325)>0.5,1,0)    }
R_R11         FORCE_3 N1183571  1  
X_U46         HEADROOM LED3 HYSTERESIS N1183571 COMPHYS_BASIC_GEN PARAMS: VDD=1
+  VSS=0 VTHRESH=0.5
X_U61         PWM_EN_DOWN N1467293 INV_BASIC_GEN PARAMS: VDD=1 VSS=0
+  VTHRESH=500E-3
X_U10         N1493887 N1509793 d_d1 PARAMS:
X_U7         N1166783 N1166815 N1166833 N1166837 MISC_3 CP_RETURN_1X N1166869
+  N1166873 N1166463 ADC
X_U19         CHIP_EN N1169583 VIN_UVLO N1468269 AND3_BASIC_GEN PARAMS: VDD=1
+  VSS=0 VTHRESH=500E-3
R_R4         FORCE_8 N1183337  1  
C_C13         GND FORCE_6  1n  
V_V22         N1167099 GND 0.01
X_U35         LED0 VIN-1 N1167661 SHORT_0 COMPHYS_BASIC_GEN PARAMS: VDD=1 VSS=0
+  VTHRESH=0.5
X_U39         HEADROOM LED1 HYSTERESIS N1183071 COMPHYS_BASIC_GEN PARAMS: VDD=1
+  VSS=0 VTHRESH=0.5
X_U31         LED8 VIN-1 N1167099 SHORT_8 COMPHYS_BASIC_GEN PARAMS: VDD=1 VSS=0
+  VTHRESH=0.5
V_V16         N1166149 GND {MISC2}
C_C12         GND FORCE_3  1n  
R_R6         FORCE_4 N1183637  1  
E_ABM3         N1166359 0 VALUE { (2 * V(N1166837) + V(MISC_3))    }
R_R10         FORCE_0 N1183007  1  
X_U3         PWM_INT N1346966 INV_BASIC_GEN PARAMS: VDD=1 VSS=0 VTHRESH=500E-3
V_V24         N1167113 GND 0.01
X_U43         HEADROOM LED8 HYSTERESIS N1183337 COMPHYS_BASIC_GEN PARAMS: VDD=1
+  VSS=0 VTHRESH=0.5
X_U27         PWM_INT PWM_RISE one_shot PARAMS:  T=100  
R_R2         EN_INT 1MS_OVER  1k  
X_U47         HEADROOM_LOW CP_AUTO N1183675 AND2_BASIC_GEN PARAMS: VDD=1 VSS=0
+  VTHRESH=500E-3
E_ABM30         N1394659 0 VALUE { IF(V(N1400289)>0.5,1,0)    }
E_ABM4         CP_DISABLE 0 VALUE { IF(V(N1166359)<0.5,1,0)    }
V_V20         N1168039 GND 0.01
C_C7         GND FORCE_4  1n  
.ENDS HOUSEKEEPING
*$
.subckt CP_U6_S9 1 2 3 4  
S_S9         3 4 1 2 _S9
RS_S9         1 2 1G
.MODEL         _S9 VSWITCH Roff=1e9 Ron=4k Voff=0.75 Von=0.25
.ends CP_U6_S9
*$
.subckt CP_U6_SS6 1 2 3 4  
S_SS6         3 4 1 2 _SS6
RS_SS6         1 2 1G
.MODEL         _SS6 VSWITCH Roff=10k Ron=3k Voff=0.2 Von=0.8
.ends CP_U6_SS6
*$
.subckt CP_U6_S7 1 2 3 4  
S_S7         3 4 1 2 _S7
RS_S7         1 2 1G
.MODEL         _S7 VSWITCH Roff=1e6 Ron=830m Voff=0.2 Von=0.8
.ends CP_U6_S7
*$
.subckt CP_U6_S1 1 2 3 4  
S_S1         3 4 1 2 _S1
RS_S1         1 2 1G
.MODEL         _S1 VSWITCH Roff=1e6 Ron=0.65 Voff=0.2 Von=0.8
.ends CP_U6_S1
*$
.subckt CP_U6_S5 1 2 3 4  
S_S5         3 4 1 2 _S5
RS_S5         1 2 1G
.MODEL         _S5 VSWITCH Roff=1e6 Ron=636.4m Voff=0.2 Von=0.8
.ends CP_U6_S5
*$
.subckt CP_U6_S6 1 2 3 4  
S_S6         3 4 1 2 _S6
RS_S6         1 2 1G
.MODEL         _S6 VSWITCH Roff=1e6 Ron=655.8m Voff=0.2 Von=0.8
.ends CP_U6_S6
*$
.subckt CP_U6_S3 1 2 3 4  
S_S3         3 4 1 2 _S3
RS_S3         1 2 1G
.MODEL         _S3 VSWITCH Roff=1e6 Ron=631.5m Voff=0.2 Von=0.8
.ends CP_U6_S3
*$
.subckt CP_U6_S2 1 2 3 4  
S_S2         3 4 1 2 _S2
RS_S2         1 2 1G
.MODEL         _S2 VSWITCH Roff=1e6 Ron=0.636 Voff=0.2 Von=0.8
.ends CP_U6_S2
*$
.subckt CP_U6_S4 1 2 3 4  
S_S4         3 4 1 2 _S4
RS_S4         1 2 1G
.MODEL         _S4 VSWITCH Roff=1e6 Ron=866.3m Voff=0.2 Von=0.8
.ends CP_U6_S4
*$
.subckt PHASE_SHIFT_DIM_U8_U4_S4 1 2 3 4  
S_S4         3 4 1 2 _S4
RS_S4         1 2 1G
.MODEL         _S4 VSWITCH Roff=1e9 Ron=1u Voff=0.2 Von=0.5
.ends PHASE_SHIFT_DIM_U8_U4_S4
*$
.subckt PHASE_SHIFT_DIM_U8_U4_S3 1 2 3 4  
S_S3         3 4 1 2 _S3
RS_S3         1 2 1G
.MODEL         _S3 VSWITCH Roff=1e9 Ron=1u Voff=0.2 Von=0.5
.ends PHASE_SHIFT_DIM_U8_U4_S3
*$
.subckt PHASE_SHIFT_DIM_U8_U4_S1 1 2 3 4  
S_S1         3 4 1 2 _S1
RS_S1         1 2 1G
.MODEL         _S1 VSWITCH Roff=10e6 Ron=1u Voff=0.2 Von=0.5
.ends PHASE_SHIFT_DIM_U8_U4_S1
*$
.subckt PHASE_SHIFT_DIM_U8_U4_S2 1 2 3 4  
S_S2         3 4 1 2 _S2
RS_S2         1 2 1G
.MODEL         _S2 VSWITCH Roff=10e6 Ron=1u Voff=0.2 Von=0.5
.ends PHASE_SHIFT_DIM_U8_U4_S2
*$
.subckt REGTOPWM_U8_U6_S1 1 2 3 4  
S_S1         3 4 1 2 _S1
RS_S1         1 2 1G
.MODEL         _S1 VSWITCH Roff=10e6 Ron=0.1m Voff=0.2 Von=0.5
.ends REGTOPWM_U8_U6_S1
*$
.subckt PULSETODUTY_U1_S1 1 2 3 4  
S_S1         3 4 1 2 _S1
RS_S1         1 2 1G
.MODEL         _S1 VSWITCH Roff=1e9 Ron=1m Voff=0.2 Von=0.5
.ends PULSETODUTY_U1_S1
*$
.subckt PULSETODUTY_U1_S2 1 2 3 4  
S_S2         3 4 1 2 _S2
RS_S2         1 2 1G
.MODEL         _S2 VSWITCH Roff=1e9 Ron=1m Voff=0.2 Von=0.5
.ends PULSETODUTY_U1_S2
*$
.subckt d_d1 1 2
d1 1 2 dd1
.model dd1 d
+ is=1e-015
+ tt=1e-011
+ n=0.01
.ends d_d1
*$
.model NMOS_SIMPLE nmos
+ vto=0
+ kp=1e+008
+ lambda=0.001
*$
.subckt srlatchrhp_basic_gen s r q qb params: vdd=1 vss=0 vthresh=0.5 
gq 0 qint value = {if(v(r) > {vthresh},-5,if(v(s)>{vthresh},5, 0))}
cqint qint 0 1n
rqint qint 0 1000meg
d_d10 qint my5 d_d1
v1 my5 0 {vdd}
d_d11 myvss qint d_d1
v2 myvss 0 {vss} 
eq qqq 0 qint 0 1
x3 qqq qqqd1 buf_basic_gen params: vdd={vdd} vss={vss} vthresh={vthresh}
rqq qqqd1 q 1
eqb qbr 0 value = {if( v(q) > {vthresh}, {vss},{vdd})}
rqb qbr qb 1 
cdummy1 q 0 1n 
cdummy2 qb 0 1n
.model d_d1 d
+ is=1e-015
+ n=0.1
.ends srlatchrhp_basic_gen
*$
.subckt one_shot in out
+ params:  t=100
s_s1         meas 0 reset2 0 s1
e_abm1         ch 0 value { if( v(in)>0.5 | v(out)>0.5,1,0)    }
r_r2         reset2 reset  0.1  
e_abm3         out 0 value { if( v(meas)<0.5 & v(ch)>0.5,1,0)    }
r_r1         meas ch  {t} 
c_c2         0 reset2  1.4427n  
c_c1         0 meas  1.4427n  
e_abm2         reset 0 value { if(v(ch)<0.5,1,0)    }
.model s1 vswitch
+ roff=1e+009
+ ron=1
+ voff=0.25
+ von=0.75
.ends one_shot
*$
.model D_D2 d
+ is=1e-009
+ rs=0.05
+ n=0.1
*$
.SUBCKT WLED 1 2
dpwc1 1 2 led
.model led d 
+ IS=1.0000E-20
+ N=2.4471
+ RS=2.4405
+ IKF=9.1198
+ CJO=25.000E-12
+ M=.1
+ VJ=.10
+ ISR=0
+ BV=100
+ IBV=3.0000E-12
+ TT=1.000E-12
.ends
*$
.SUBCKT RLED 1 2
dpwc1 1 2 LED1
.model LED1 D 
+ Is=3.8056e-10
+ TT=10p
+ Rs=0.05
+ Cjo = 1p
+ N=4.01
.ends RLED
*$
.SUBCKT GLED 1 2
dpwc1 1 2 LED1
.model LED1 D 
+ Is=3.8056e-10
+ TT=10p
+ Rs=0.05
+ Cjo = 100f
+ N=9.1
.ends GLED
*$
.SUBCKT BLED 1 2
dpwc1 1 2 LED1
.model LED1 D 
+ Is=3.8056e-10
+ TT=10p
+ Rs=0.05
+ Cjo = 100f
+ N=6.5
.ends BLED
*$
.SUBCKT AND2_BASIC_GEN A B Y PARAMS: VDD=1 VSS=0 VTHRESH=0.5 
E_ABMGATE    Y 0 VALUE {{IF(V(A) > {VTHRESH}  &  
+ V(B) > {VTHRESH},{VDD},{VSS})}}
.ENDS AND2_BASIC_GEN
*$
.SUBCKT COMPHYS_BASIC_GEN INP INM HYS OUT PARAMS: VDD=1 VSS=0 VTHRESH=0.5	
EIN INP1 INM1 INP INM 1 