* BEGIN MODEL LPV511
*//////////////////////////////////////////////////////////////////////
* (C) National Semiconductor, Corporation.
* Models developed and under copyright by:
* National Semiconductor, Corporation.  
*/////////////////////////////////////////////////////////////////////
* Legal Notice:  
* The model may be copied, and distributed without any modifications;
* however, reselling or licensing the material is illegal.
* We reserve the right to make changes to the model without prior notice. 
* Pspice Models are provided "AS IS, WITH NO WARRANTY OF ANY KIND" 
*////////////////////////////////////////////////////////////////////
*///////////LPV511 SPICE MODEL PERFORMANCE///////////////
*MODEL FEATURES INCLUDE OUTPUT SWING, OUTPUT CURRENT THRU
*THE SUPPLY RAILS, GAIN AND PHASE, SLEW RATE, COMMON MODE
*REJECTION, POWER SUPPLY REJECTION, INPUT VOLTAGE NOISE
*WITH 1/F, INPUT CURRENT NOISE WITH 1/F, INPUT CAPACITANCE,
*INPUT BIAS CURRENT, INPUT BIAS CURRENT VS VCM, INPUT COMMON
*MODE RANGE, INPUT OFFSET,INPUT OFFSET VS VCM, HIGH CLOAD
*DRIVE CAPABILITY, OUTPUT CLAMPS TO THE RAIL, AND QUIESCENT
*SUPPLY CURRENT.
*////////////////////////////////////////////////////////////
*////MODEL TEMP RANGE IS -55 TO +125 DEG C.////////////
*//NOTE THAT MODEL IS FUNCTIONAL OVER THIS RANGE BUT NOT ALL
*////PARAMETERS TRACK THOSE OF THE REAL PART./////////////
*///////////////////////////////////////////////////////////
* PINOUT ORDER +IN -IN +V -V OUT
* PINOUT ORDER  3   4   5  2  1
.SUBCKT LPV511 3 4 5 2 1
Q1 6 7 8 QIN
Q2 9 10 11 QIN
Q3 12 13 14 QNG
Q4 13 13 14 QNG
Q5 15 10 16 QIP
Q6 17 18 19 QIP
Q7 20 21 22 QPG
Q16 13 23 20 QPG
R1 12 8 125
R2 12 11 125
R3 19 20 125
R4 16 20 125
R5 24 25 200
R7 6 22 300
R8 14 15 300
R9 14 17 300
V3 22 23 1
I1 21 22 25E-9
R15 26 10 200
V5 7 18 0.35E-3
V6 25 18 0.2E-3
D7 27 0 DIN
D8 28 0 DIN
I8 0 27 0.1E-3
I9 0 28 0.1E-3
C4 24 0 1E-12
C5 4 0 1E-12
D9 29 0 DVN
D10 30 0 DVN
I10 0 29 0.1E-3
I11 0 30 0.1E-3
E4 26 4 29 30 3.9
G2 24 26 27 28 2.8E-14
E5 31 0 22 0 1
E6 32 0 14 0 1
E7 33 0 34 0 1
R30 31 35 1E6
R31 32 36 1E6
R32 33 37 1E6
R33 0 35 100
R34 0 36 100
R35 0 37 100
E10 38 3 37 0 0.01
R36 26 34 1E9
R37 34 24 1E9
C6 31 35 1E-12
C7 32 36 3E-12
C8 33 37 3E-12
R6 9 22 300
E11 39 38 36 0 0.3
E12 24 39 35 0 0.3
C9 9 6 3E-9
C10 15 17 3E-9
Q21 40 41 14 QNG
R38 41 42 1E3
R39 43 44 1E3
R40 45 5 10
R41 2 46 10
R43 47 48 2E3
R44 49 22 10
R45 14 50 10
D11 1 5 DD
D12 2 1 DD
E16 14 0 2 0 1
E17 22 0 5 0 1
R46 2 5 100E6
E18 51 14 22 14 0.5
D13 47 22 DD
D14 14 47 DD
M2 52 53 46 46 NOUT L=3U W=30U
M3 54 55 45 45 POUT L=3U W=15U
M4 56 56 49 49 POUT L=3U W=15U
M9 57 57 50 50 NOUT L=3U W=30U
R47 58 55 100
R48 59 53 100
G4 47 51 60 51 20E-6
R49 51 47 1.6E10
C13 48 1 18E-12
C17 1 0 0.5E-12
D15 53 40 DD
D16 61 55 DD
Q22 61 44 22 QPG
R60 1 54 50
R61 52 1 5
G8 62 51 47 51 -1E-3
G9 51 63 47 51 1E-3
G10 51 64 57 14 1E-3
G11 65 51 22 56 1E-3
D18 65 62 DD
D19 63 64 DD
R67 62 65 100E6
R68 64 63 100E6
R69 65 22 1E3
R70 14 64 1E3
E24 22 58 22 65 1
E25 59 14 64 14 1
R71 63 51 1E6
R72 64 51 1E6
R73 51 65 1E6
R74 51 62 1E6
R82 58 22 1E9
R83 14 59 1E9
I22 5 2 0.26E-6
R156 56 22 1E8
R157 14 57 1E8
R158 46 53 1E8
R159 45 55 1E8
G37 47 51 66 51 20E-6
R305 51 66 1E9
E99 22 43 5 45 10
E100 42 14 46 2 10
I23 56 57 0.5E-6
E101 60 51 15 17 10
E102 66 51 6 9 -10
D2 10 71 DCL
D20 7 71 DCL
D21 72 10 DCL
D22 72 18 DCL
Q24 67 67 68 QPG
Q25 10 10 67 QPG
Q26 69 69 70 QNG
Q27 70 70 10 QNG
R306 47 1 1.6E11
R307 51 60 1E9
C20 24 10 0.1E-12
Q28 68 68 7 QPG
Q29 7 7 69 QNG
R308 3 38 1E9
R309 38 39 1E9
R310 39 24 1E9
V7 22 71 -0.2
V8 72 14 -0.2
.MODEL POUT PMOS KP=200U VTO=-0.7
.MODEL NOUT NMOS KP=200U VTO=0.7
.MODEL DD D
.MODEL DCL D IS=1E-18
.MODEL QNG NPN
.MODEL QPG PNP
.MODEL QIN NPN KF=1.25E-17 BF=9E3
.MODEL QIP PNP KF=1.25E-17 BF=5E3
.MODEL DVN D KF=2.5E-16
.MODEL DIN D KF=8E-17
.ENDS
* END MODEL LPV511