*$ 
* OP07D
*****************************************************************************
* (C) Copyright 2022 Texas Instruments Incorporated. All rights reserved.                                            
*****************************************************************************
** This model is designed as an aid for customers of Texas Instruments.
** TI and its licensors and suppliers make no warranties, either expressed
** or implied, with respect to this model, including the warranties of 
** merchantability or fitness for a particular purpose.  The model is
** provided solely on an "as is" basis.  The entire risk as to its quality
** and performance is with the customer
*****************************************************************************
*
* This model is subject to change without notice. Texas Instruments
* Incorporated is not responsible for updating this model.
*
*****************************************************************************
*
** Released by: Online Design Tools, Texas Instruments Inc.
* Part: OP07D
* Date: 21JUL2022
* EVM Order Number: N/A 
* EVM Users Guide:  N/A 
* Datasheet: SLOS099G -OCTOBER 1983-REVISED NOVEMBER 2014
* Parts is a MicroSim product.
*
* Model Version: Final 1.1
*
*****************************************************************************
*
* Updates:
*
* Final 1.1
* 1. Updated PSpice Symbol.
* 2. Added .ENDS name as OP07D.
*
* Final 1.0
* Release to Web.
* 
*****************************************************************************
* Model Usage Notes:
* 1. Model file is updated with latest header.
***************************************************************************** 
* CONNECTIONS:   NON-INVERTING INPUT
*                | INVERTING INPUT
*                | | POSITIVE POWER SUPPLY
*                | | | NEGATIVE POWER SUPPLY
*                | | | | OUTPUT
*                | | | | |
.SUBCKT OP07D    1 2 3 4 5
*****************************************************************************
C1   11 12 6.996E-12
C2    6  7 30.00E-12
DC    5 53 DX
DE   54  5 DX
DLP  90 91 DX
DLN  92 90 DX
DP    4  3 DX
EGND 99  0 POLY(2) (3,0) (4,0) 0 .5 .5
FB    7 99 POLY(5) VB VC VE VLP VLN 0 115.9E6 -100E6 100E6 100E6 -100E6
GA    6  0 11 12 115.0E-6
GCM   0  6 10 99 204.5E-12
IEE  10  4 DC 9.004E-6
HLIM 90  0 VLIM 1K
Q1   11  2 13 QX
Q2   12  1 14 QX
R2    6  9 100.0E3
RC1   3 11 8.696E3
RC2   3 12 8.696E3
RE1  13 10 2.947E3
RE2  14 10 2.947E3
REE  10 99 22.21E6
RO1   8  5 30
RO2 7 99 31.2
RP    3  4 11.29E3
VB    9  0 DC 0
VC    3 53 DC 2.800
VE   54  4 DC 2.800
VLIM  7  8 DC 0
VLP  91  0 DC 20
VLN   0 92 DC 20
.MODEL DX D(IS=800.0E-18)
.MODEL QX NPN(IS=800.0E-18 BF=2.250E3)
.ENDS OP07D
