* BEGIN MODEL OPA1S2384
****************************************************************************
* (C) Copyright 2012 Texas Instruments Incorporated. All rights reserved.     
****************************************************************************
** This model is designed as an aid for customers of Texas Instruments.      
** TI and its licensors and suppliers make no warranties, either expressed   
** or implied, with respect to this model, including the warranties of       
** merchantability or fitness for a particular purpose. The model is        
** provided solely on an "as is" basis. The entire risk as to its quality   
** and performance is with the customer                                    
****************************************************************************
* OPA1S2384 model definition by Precison Analog - Linear Applications Engineering
* Texas Instruments, Tucson
* Released by: Analog eLab Design Center, Texas Instruments Inc.
* Part: OPA1S2384
* 200 MHz, CMOS transimpedance amplifier (TIA) with integrated switch and 
* buffer
* Date: 2012-11-12
* Model Type: TINA
* Simulator: TINA-TI
* Simulator Version: 7.0 and later
* Datasheet: Preliminary, July-2012
*
***************************************************************************
* version 1.01:
****************************************************************************
*
* MODEL FEATURES INCLUDE ON RESISTANCE VERSUS VOLTAGE, SUPPLY,
* AND TEMPERATURE, OFF ISOLATION VS FREQUENCY, BANDWITH, CHARGE
* INJECTION, CAPACITANCE, LEAKAGE, TON AND TOFF VERSUS SUPPLY,
* QUIESCENT CURRENT VS SUPPLY, CONTROL THRESHOLD, CONTROL PIN
* LEAKAGE, AND CONTROL PIN CAPACITANCE.
* MODEL TEMP RANGE IS -40 TO + 85 DEG C.
* MODEL WILL FUNCTION  -55 TO +125 DEG C.
* NOTE THAT MODEL IS FUNCTIONAL OVER THIS RANGE BUT NOT ALL
* PARAMETERS TRACK THOSE OF THE REAL PART.
*
* NOTE THAT CHARGE INJECTION DOES NOT VARY WITH BIAS VOLTAGE
* AS MUCH AS THE DATA SHEET SHOWS, IF YOU WANT TO ADJUST THE
* AMOUNT OF CHARGE INJECTION VARY THE VALUES OF C56 AND C57
*
* PINOUT ORDER OUTA INS -INA +INA VS- +INB -INB OUTB VS+ SC
* PINOUT ORDER   1   2    3    4   5    6    7    8   9  10
.SUBCKT OPA1S2384 1 2 3 4 5 6 7 8 9 10
C56 175 182 0.25E-12
C57 175 183 0.25E-12
Q20 11 12 13 QLN
R3 14 15 20
R4 16 15 20
R10 12 17 1E3
R11 18 19 1E3
R12 19 9 2.5
R13 5 17 2.5
R16 20 21 1E3
R17 22 23 2.5
R18 13 24 2.5
D5 25 9 DD
D6 5 25 DD
D7 26 0 DIN
D8 27 0 DIN
I8 0 26 0.1E-3
I9 0 27 0.1E-3
E2 13 0 5 0 1
E3 23 0 9 0 1
D9 28 0 DVN
D10 29 0 DVN
I10 0 28 0.1E-3
I11 0 29 0.1E-3
E4 30 3 28 29 0.18
G2 31 3 26 27 5E-7
R22 5 9 2630
E5 32 0 23 0 1
E6 33 0 13 0 1
E7 34 0 35 0 1
R30 32 36 1E4
R31 33 37 1E5
R32 34 38 1E5
R33 0 36 1
R34 0 37 10
R35 0 38 10
E10 39 4 38 0 0.4
R36 40 35 1E3
R37 35 41 1E3
C6 32 36 0.2E-12
C7 33 37 100E-12
C8 34 38 2E-12
E11 42 39 37 0 0.5
E12 31 42 36 0 3.3
E14 43 13 23 13 0.5
D11 20 23 DD
D12 13 20 DD
M1 44 45 17 17 NOUT L=3U W=800U
M2 46 47 19 19 POUT L=3U W=800U
M3 48 48 22 22 POUT L=3U W=800U
M4 49 50 14 14 PIN L=3U W=160U
M5 51 30 16 16 PIN L=3U W=160U
M8 52 52 24 24 NOUT L=3U W=800U
R43 53 47 100
R44 54 45 100
G3 20 43 55 43 0.2E-3
R45 43 20 200E6
C12 21 25 1E-12
R46 13 49 2E3
R47 13 51 2E3
C13 49 51 0.125E-12
C14 31 0 0.68E-12
C15 30 0 0.68E-12
C16 25 0 0.5E-12
D13 45 11 DD
D14 56 47 DD
Q15 56 18 23 QLP
V18 31 50 0.7E-3
M16 57 58 59 59 NIN L=3U W=160U
R53 60 59 20
M17 61 30 62 62 NIN L=3U W=160U
R54 60 62 20
R55 57 23 2E3
R56 61 23 2E3
C20 57 61 0.125E-12
V19 50 58 -2E-3
M18 63 64 65 65 PIN L=6U W=500U
M19 66 67 23 23 PIN L=6U W=500U
V20 23 64 1.3
M21 60 63 13 13 NIN L=6U W=500U
M22 63 63 13 13 NIN L=6U W=500U
G6 20 43 68 43 0.2E-3
E17 41 0 31 0 1
E18 40 0 3 0 1
M23 67 67 23 23 PIN L=6U W=500U
V21 66 15 0
R59 25 46 15
R60 44 25 15
J1 69 31 69 JNC
J2 69 30 69 JNC
J3 30 70 30 JNC
J4 31 70 31 JNC
C21 31 30 0.5E-12
E19 71 43 61 57 1
R61 71 68 1E4
C22 68 43 0.125E-12
E20 72 43 51 49 1
R62 72 55 1E4
C23 55 43 0.125E-12
G7 73 43 20 43 -1E-3
G8 43 74 20 43 1E-3
G9 43 75 52 13 1E-3
G10 76 43 23 48 1E-3
D17 76 73 DD
D18 74 75 DD
R66 73 76 100E6
R67 75 74 100E6
R68 76 23 1E3
R69 13 75 1E3
E23 23 53 23 76 1
E24 54 13 75 13 1
R70 74 43 1E6
R71 75 43 1E6
R72 43 76 1E6
R73 43 73 1E6
G11 9 5 77 0 1.42E-3
R75 42 31 1E9
R76 39 42 1E9
R77 4 39 1E9
R78 3 30 1E9
R79 43 55 1E9
R80 43 68 1E9
R81 53 23 1E9
R82 13 54 1E9
R83 35 0 1E9
R85 65 66 1E3
G14 67 13 78 0 400E-6
G15 48 52 78 0 1.35E-3
E48 79 20 78 0 30
E49 80 43 78 0 -30
V49 81 80 15
V50 82 79 -15
R127 79 0 1E12
R128 80 0 1E12
M41 43 82 20 83 PSW L=1.5U W=150U
M42 20 81 43 84 NSW L=1.5U W=150U
R129 83 0 1E12
R130 84 0 1E12
M43 85 86 13 13 NEN L=3U W=300U
M44 87 85 13 13 NEN L=3U W=3000U
R131 85 23 1E4
R132 87 88 1E6
V51 88 13 1
M45 89 89 23 23 PEN L=6U W=60U
M46 86 89 23 23 PEN L=6U W=60U
I20 89 13 0.2E-6
C26 86 0 1E-12
E50 78 0 90 13 1
V52 87 90 1.111E-6
R133 13 90 1E12
C32 23 85 15E-12
C33 88 87 0.15E-12
I21 9 5 3.4E-6
L1 25 1 4E-9
R150 25 1 400
V78 23 69 0
V79 70 13 0
I22 30 0 1E-12
I23 31 0 1E-12
M47 91 85 13 13 NEN L=3U W=3000U
R152 91 88 1E6
C34 88 91 0.005E-12
V80 91 92 1.111E-6
R153 13 92 1E12
E53 77 0 92 13 1
R154 0 77 1E12
R155 48 23 1E9
R156 13 52 1E9
R157 17 45 1E9
R158 19 47 1E9
R159 86 23 10E6
RG1 0 77 1E9
Q21 93 94 95 QLN
R160 96 97 20
R161 98 97 20
R162 94 99 1E3
R163 100 101 1E3
R164 101 9 2.5
R165 5 99 2.5
R166 102 103 1E3
R167 104 105 2.5
R168 95 106 2.5
D19 107 9 DD
D20 5 107 DD
D21 108 0 DIN
D22 109 0 DIN
I24 0 108 0.1E-3
I25 0 109 0.1E-3
E54 95 0 5 0 1
E55 105 0 9 0 1
D23 110 0 DVN
D24 111 0 DVN
I26 0 110 0.1E-3
I27 0 111 0.1E-3
E56 112 7 110 111 0.18
G16 113 7 108 109 5E-7
R169 5 9 2630
E57 114 0 105 0 1
E58 115 0 95 0 1
E59 116 0 117 0 1
R170 114 118 1E4
R171 115 119 1E5
R172 116 120 1E5
R173 0 118 1
R174 0 119 10
R175 0 120 10
E60 121 6 120 0 0.4
R176 122 117 1E3
R177 117 123 1E3
C35 114 118 0.2E-12
C36 115 119 100E-12
C37 116 120 2E-12
E61 124 121 119 0 0.5
E62 113 124 118 0 3.3
E63 125 95 105 95 0.5
D25 102 105 DD
D26 95 102 DD
M48 126 127 99 99 NOUT L=3U W=800U
M49 128 129 101 101 POUT L=3U W=800U
M50 130 130 104 104 POUT L=3U W=800U
M51 131 132 96 96 PIN L=3U W=160U
M52 133 112 98 98 PIN L=3U W=160U
M53 134 134 106 106 NOUT L=3U W=800U
R178 135 129 100
R179 136 127 100
G17 102 125 137 125 0.2E-3
R180 125 102 200E6
C38 103 107 1E-12
R181 95 131 2E3
R182 95 133 2E3
C39 131 133 0.125E-12
C40 113 0 0.68E-12
C41 112 0 0.68E-12
C42 107 0 0.5E-12
D27 127 93 DD
D28 138 129 DD
Q22 138 100 105 QLP
V81 113 132 0.7E-3
M54 139 140 141 141 NIN L=3U W=160U
R183 142 141 20
M55 143 112 144 144 NIN L=3U W=160U
R184 142 144 20
R185 139 105 2E3
R186 143 105 2E3
C43 139 143 0.125E-12
V82 132 140 -2E-3
M56 145 146 147 147 PIN L=6U W=500U
M57 148 149 105 105 PIN L=6U W=500U
V83 105 146 1.3
M58 142 145 95 95 NIN L=6U W=500U
M59 145 145 95 95 NIN L=6U W=500U
G18 102 125 150 125 0.2E-3
E64 123 0 113 0 1
E65 122 0 7 0 1
M60 149 149 105 105 PIN L=6U W=500U
V84 148 97 0
R187 107 128 15
R188 126 107 15
J5 151 113 151 JNC
J6 151 112 151 JNC
J7 112 152 112 JNC
J8 113 152 113 JNC
C44 113 112 0.5E-12
E66 153 125 143 139 1
R189 153 150 1E4
C45 150 125 0.125E-12
E67 154 125 133 131 1
R190 154 137 1E4
C46 137 125 0.125E-12
G19 155 125 102 125 -1E-3
G20 125 156 102 125 1E-3
G21 125 157 134 95 1E-3
G22 158 125 105 130 1E-3
D29 158 155 DD
D30 156 157 DD
R191 155 158 100E6
R192 157 156 100E6
R193 158 105 1E3
R194 95 157 1E3
E68 105 135 105 158 1
E69 136 95 157 95 1
R195 156 125 1E6
R196 157 125 1E6
R197 125 158 1E6
R198 125 155 1E6
G23 9 5 159 0 1.42E-3
R199 124 113 1E9
R200 121 124 1E9
R201 6 121 1E9
R202 7 112 1E9
R203 125 137 1E9
R204 125 150 1E9
R205 135 105 1E9
R206 95 136 1E9
R207 117 0 1E9
R208 147 148 1E3
G24 149 95 160 0 400E-6
G25 130 134 160 0 1.35E-3
E70 161 102 160 0 30
E71 162 125 160 0 -30
V85 163 162 15
V86 164 161 -15
R209 161 0 1E12
R210 162 0 1E12
M61 125 164 102 165 PSW L=1.5U W=150U
M62 102 163 125 166 NSW L=1.5U W=150U
R211 165 0 1E12
R212 166 0 1E12
M63 167 168 95 95 NEN L=3U W=300U
M64 169 167 95 95 NEN L=3U W=3000U
R213 167 105 1E4
R214 169 170 1E6
V87 170 95 1
M65 171 171 105 105 PEN L=6U W=60U
M66 168 171 105 105 PEN L=6U W=60U
I28 171 95 0.2E-6
C47 168 0 1E-12
E72 160 0 172 95 1
V88 169 172 1.111E-6
R215 95 172 1E12
C48 105 167 15E-12
C49 170 169 0.15E-12
I29 9 5 3.4E-6
L2 107 8 4E-9
R216 107 8 400
V89 105 151 0
V90 152 95 0
I30 112 0 1E-12
I31 113 0 1E-12
M67 173 167 95 95 NEN L=3U W=3000U
R217 173 170 1E6
C50 170 173 0.005E-12
V91 173 174 1.111E-6
R218 95 174 1E12
E73 159 0 174 95 1
R219 0 159 1E12
R220 130 105 1E9
R221 95 134 1E9
R222 99 127 1E9
R223 101 129 1E9
R224 168 105 10E6
R225 0 159 1E9
M68 2 175 6 176 MN W=1130U L=8U
M69 177 175 5 5 MN W=90U L=8U
M70 2 177 6 9 MP W=1130U L=8U
M71 177 175 9 9 MP W=90U L=8U
M72 6 177 176 9 MP W=90U L=8U
R633 10 178 200
D32 178 9 DD1
D33 5 178 DD1
C51 6 2 0.27E-12
M73 175 179 5 5 MN W=6.3U L=8U
M74 175 179 9 9 MP W=11.7U L=8U
C52 179 0 13E-12
C53 10 0 3E-12
R634 180 179 250
M79 278 178 5 5 MN W=6.3u L=8u
M80 278 178 9 9 MP W=11.7u L=8u
E74 181 0 278 0 1.6
C54 6 0 6.167E-12
C55 2 0 6.167E-12
R637 2 183 1E3
R638 6 182 1E3
C58 175 0 9E-12
C59 175 177 0.5P
D38 184 185 DL
V146 185 0 3
R641 0 184 1E8
G55 186 0 184 0 -16.8E-10
I68 186 0 -9E-12
G56 187 0 184 0 -16.8E-10
I69 187 0 -9E-12
M75 6 186 5 5 MN W=90U L=8U
M76 186 186 5 5 MN W=90U L=8U
M77 2 187 5 5 MN W=90U L=8U
M78 187 187 5 5 MN W=90U L=8U
V151 181 180 0
R646 0 78 1E12
R647 0 160 1E12
.MODEL DVN D KF=8E-12 IS=1E-16
.MODEL DD D
.MODEL DIN D
.MODEL QLN NPN
.MODEL QLP PNP
.MODEL JNC NJF
.MODEL POUT PMOS KP=200U VTO=-0.7
.MODEL NOUT NMOS KP=200U VTO=0.7
.MODEL PIN PMOS KP=200U VTO=-0.7
.MODEL NIN NMOS KP=200U VTO=0.7
.MODEL NEN NMOS KP=200U VTO=0.5 IS=1E-18
.MODEL PEN PMOS KP=200U VTO=-0.7 IS=1E-18
.MODEL PSW PMOS KP=200U VTO=-7.5 IS=1E-18
.MODEL NSW NMOS KP=200U VTO=7.5 IS=1E-18
.MODEL DL D IS=2E-11 N=1.397 XTI=1.5
.MODEL MN NMOS VTO=0.625 RS=0.6
+CGBO=3.798E-11 CGDO=4.169E-11 CGSO=4.169E-11
+CJSW=1.055E-18 KP=6E-4
.MODEL MP PMOS VTO=-0.625
+CGBO=3.798E-11 CGDO=3.207E-11 CGSO=3.207E-11
+CJSW=6.330E-19 KP=6E-4 RS=0.6
.MODEL DD1 D IS=8E-14 RS=14 CJO=0.2E-12 TT=1.2E-9
.ENDS
* END MODEL OPA1S2384
