* OPA2347 - Rev. A
* Created by Bala Ravi; October 11, 2019
* Created with Green-Williams-Lis Op Amp Macro-model Architecture
* Copyright 2019 by Texas Instruments Corporation
******************************************************
* MACRO-MODEL SIMULATED PARAMETERS:
******************************************************
* OPEN-LOOP GAIN AND PHASE VS. FREQUENCY  WITH RL, CL EFFECTS (Aol)
* UNITY GAIN BANDWIDTH (GBW)
* INPUT COMMON-MODE REJECTION RATIO VS. FREQUENCY (CMRR)
* POWER SUPPLY REJECTION RATIO VS. FREQUENCY (PSRR)
* DIFFERENTIAL INPUT IMPEDANCE (Zid)
* COMMON-MODE INPUT IMPEDANCE (Zic)
* OPEN-LOOP OUTPUT IMPEDANCE VS. FREQUENCY (Zo)
* OUTPUT CURRENT THROUGH THE SUPPLY (Iout)
* INPUT VOLTAGE NOISE DENSITY VS. FREQUENCY (en)
* INPUT CURRENT NOISE DENSITY VS. FREQUENCY (in)
* OUTPUT VOLTAGE SWING vs. OUTPUT CURRENT (Vo)
* SHORT-CIRCUIT OUTPUT CURRENT (Isc)
* QUIESCENT CURRENT (Iq)
* SETTLING TIME VS. CAPACITIVE LOAD (ts)
* SLEW RATE (SR)
* SMALL SIGNAL OVERSHOOT VS. CAPACITIVE LOAD
* LARGE SIGNAL RESPONSE
* OVERLOAD RECOVERY TIME (tor)
* INPUT BIAS CURRENT (Ib)
* INPUT OFFSET CURRENT (Ios)
* INPUT OFFSET VOLTAGE (Vos)
* INPUT COMMON-MODE VOLTAGE RANGE (Vcm)
* INPUT OFFSET VOLTAGE VS. INPUT COMMON-MODE VOLTAGE (Vos vs. Vcm)
* INPUT/OUTPUT ESD CELLS (ESDin, ESDout)
******************************************************
.subckt OPA2347 IN+ IN- VCC VEE OUT
******************************************************
* MODEL DEFINITIONS:
.model BB_SW VSWITCH(Ron=50 Roff=1e12 Von=700e-3 Voff=0)
.model ESD_SW VSWITCH(Ron=50 Roff=1e12 Von=250e-3 Voff=0)
.model OL_SW VSWITCH(Ron=1e-3 Roff=1e9 Von=900e-3 Voff=800e-3)
.model OR_SW VSWITCH(Ron=10e-3 Roff=1e9 Von=1e-3 Voff=0)
.model R_NOISELESS RES(T_ABS=-273.15)
******************************************************


I_OS        ESDn MID -500F
I_B         21 MID 500F
V_GRp       52 MID 80
V_GRn       53 MID -80
V_ISCp      46 MID 17
V_ISCn      47 MID -17
V_ORn       29 VCLP -5
V11         51 28 0
V_ORp       27 VCLP 5
V12         50 26 0
V4          39 OUT 0
VCM_MIN     74 VEE_B -200M
VCM_MAX     75 VCC_B 200M
I_Q         VCC VEE 20U
V_OS        82 21 1.945M
SW11        ESDp ESDn ESDp ESDn  S_VSWITCH_1
SW10        ESDn ESDp ESDn ESDp  S_VSWITCH_2
S5          VEE ESDp VEE ESDp  S_VSWITCH_3
S4          VEE ESDn VEE ESDn  S_VSWITCH_4
S2          ESDn VCC ESDn VCC  S_VSWITCH_5
S3          ESDp VCC ESDp VCC  S_VSWITCH_6
C28         22 MID 1P 
R77         23 22 R_NOISELESS 100 
C27         24 MID 1P 
R76         25 24 R_NOISELESS 100 
R75         MID 26 R_NOISELESS 1 
GVCCS8      26 MID 27 MID  -1
R74         28 MID R_NOISELESS 1 
GVCCS7      28 MID 29 MID  -1
R73         30 MID R_NOISELESS 1 
XVCCS_LIM_ZO 31 MID MID 30 VCCS_LIM_ZO_0
Xi_nn       ESDn MID FEMT_0
Xi_np       MID 21 FEMT_0
Xe_n        ESDp 21 VNSE_0
C25         32 MID 5.2F 
R69         MID 32 R_NOISELESS 1MEG 
GVCCS6      32 MID VSENSE MID  -1U
C20         CLAMP MID 349.8N 
R68         MID CLAMP R_NOISELESS 1MEG 
XVCCS_LIM_2 33 MID MID CLAMP VCCS_LIM_2_0
R44         MID 33 R_NOISELESS 1MEG 
XVCCS_LIM_1 34 35 MID 33 VCCS_LIM_1_0
R72         31 MID R_NOISELESS 5 
C26         31 36 318.3F 
R71         31 36 R_NOISELESS 10K 
R70         36 MID R_NOISELESS 1 
GVCCS3      36 MID 37 MID  -5
C21         38 37 7.58P 
R51         37 MID R_NOISELESS 1.11K 
R50         37 38 R_NOISELESS 10K 
Rdummy      MID 39 R_NOISELESS 39.5K 
Rx          39 30 R_NOISELESS 395K 
Rdc         38 MID R_NOISELESS 1 
G_Aol_Zo    38 MID CL_CLAMP 39  -89
R61         MID 40 R_NOISELESS 700 
C16         40 41 227.4P 
R58         41 40 R_NOISELESS 100MEG 
GVCCS2      41 MID VEE_B MID  -1.43
R57         MID 41 R_NOISELESS 1 
R56         MID 42 R_NOISELESS 700 
C15         42 43 227.4P 
R55         43 42 R_NOISELESS 100MEG 
GVCCS1      43 MID VCC_B MID  -1.43
R54         MID 43 R_NOISELESS 1 
R49         MID 44 R_NOISELESS 25K 
C14         44 45 6.37P 
R48         45 44 R_NOISELESS 100MEG 
G_adjust    45 MID ESDp MID  -400M
Rsrc        MID 45 R_NOISELESS 1 
XIQPos      VIMON MID MID VCC VCCS_LIMIT_IQ_0
XIQNeg      MID VIMON VEE MID VCCS_LIMIT_IQ_0
C_DIFF      ESDp ESDn 3P 
XCL_AMP     46 47 VIMON MID 48 49 CLAMP_AMP_LO_0
SOR_SWp     CLAMP 50 CLAMP 50  S_VSWITCH_7
SOR_SWn     51 CLAMP 51 CLAMP  S_VSWITCH_8
XGR_AMP     52 53 54 MID 55 56 CLAMP_AMP_HI_0
R39         52 MID R_NOISELESS 1T 
R37         53 MID R_NOISELESS 1T 
R42         VSENSE 54 R_NOISELESS 1M 
C19         54 MID 1F 
R38         55 MID R_NOISELESS 1 
R36         MID 56 R_NOISELESS 1 
R40         55 57 R_NOISELESS 1M 
R41         56 58 R_NOISELESS 1M 
C17         57 MID 1F 
C18         MID 58 1F 
XGR_SRC     57 58 CLAMP MID VCCS_LIM_GR_0
R21         48 MID R_NOISELESS 1 
R20         MID 49 R_NOISELESS 1 
R29         48 59 R_NOISELESS 1M 
R30         49 60 R_NOISELESS 1M 
C9          59 MID 1F 
C8          MID 60 1F 
XCL_SRC     59 60 CL_CLAMP MID VCCS_LIM_4_0
R22         46 MID R_NOISELESS 1T 
R19         MID 47 R_NOISELESS 1T 
XCLAWp      VIMON MID 61 VCC_B VCCS_LIM_CLAW+_0
XCLAWn      MID VIMON VEE_B 62 VCCS_LIM_CLAW-_0
R12         61 VCC_B R_NOISELESS 1K 
R16         61 63 R_NOISELESS 1M 
R13         VEE_B 62 R_NOISELESS 1K 
R17         64 62 R_NOISELESS 1M 
C6          64 MID 1F 
C5          MID 63 1F 
G2          VCC_CLP MID 63 MID  -1M
R15         VCC_CLP MID R_NOISELESS 1K 
G3          VEE_CLP MID 64 MID  -1M
R14         MID VEE_CLP R_NOISELESS 1K 
XCLAW_AMP   VCC_CLP VEE_CLP VOUT_S MID 65 66 CLAMP_AMP_LO_0
R26         VCC_CLP MID R_NOISELESS 1T 
R23         VEE_CLP MID R_NOISELESS 1T 
R25         65 MID R_NOISELESS 1 
R24         MID 66 R_NOISELESS 1 
R27         65 67 R_NOISELESS 1M 
R28         66 68 R_NOISELESS 1M 
C11         67 MID 1F 
C10         MID 68 1F 
XCLAW_SRC   67 68 CLAW_CLAMP MID VCCS_LIM_3_0
H2          25 MID V11 -1
H3          23 MID V12 1
C12         SW_OL MID 100P 
R32         69 SW_OL R_NOISELESS 100 
R31         69 MID R_NOISELESS 1 
XOL_SENSE   MID 69 24 22 OL_SENSE_0
S1          38 37 SW_OL MID  S_VSWITCH_9
H1          70 MID V4 1K
S7          VEE OUT VEE OUT  S_VSWITCH_10
S6          OUT VCC OUT VCC  S_VSWITCH_11
R11         MID 71 R_NOISELESS 1T 
R18         71 VOUT_S R_NOISELESS 100 
C7          VOUT_S MID 1N 
E5          71 MID OUT MID  1
C13         VIMON MID 1N 
R33         70 VIMON R_NOISELESS 100 
R10         MID 70 R_NOISELESS 1T 
R47         72 VCLP R_NOISELESS 100 
C24         VCLP MID 100P 
E4          72 MID CL_CLAMP MID  1
R46         MID CL_CLAMP R_NOISELESS 1K 
G9          CL_CLAMP MID CLAW_CLAMP MID  -1M
R45         MID CLAW_CLAMP R_NOISELESS 1K 
G8          CLAW_CLAMP MID 32 MID  -1M
R43         MID VSENSE R_NOISELESS 1K 
G15         VSENSE MID CLAMP MID  -1M
C4          34 MID 1F 
R9          34 73 R_NOISELESS 1M 
R7          MID 74 R_NOISELESS 1T 
R6          75 MID R_NOISELESS 1T 
R8          MID 73 R_NOISELESS 1 
XVCM_CLAMP  76 MID 73 MID 75 74 VCCS_EXT_LIM_0
E1          MID 0 77 0  1
R89         VEE_B 0 R_NOISELESS 1 
R5          78 VEE_B R_NOISELESS 1M 
C3          78 0 1F 
R60         77 78 R_NOISELESS 1MEG 
C1          77 0 1 
R3          77 0 R_NOISELESS 1T 
R59         79 77 R_NOISELESS 1MEG 
C2          79 0 1F 
R4          VCC_B 79 R_NOISELESS 1M 
R88         VCC_B 0 R_NOISELESS 1 
G17         VEE_B 0 VEE 0  -1
G16         VCC_B 0 VCC 0  -1
R_PSR       80 76 R_NOISELESS 1K 
G_PSR       76 80 42 40  -1M
R2          35 ESDn R_NOISELESS 1M 
R1          80 81 R_NOISELESS 1M 
R_CMR       82 81 R_NOISELESS 1K 
G_CMR       81 82 44 MID  -1M
C_CMn       ESDn MID 6P 
C_CMp       MID ESDp 6P 
R53         ESDn MID R_NOISELESS 1T 
R52         MID ESDp R_NOISELESS 1T 
R35         IN- ESDn R_NOISELESS 10M 
R34         IN+ ESDp R_NOISELESS 10M 

.MODEL S_VSWITCH_1 VSWITCH (RON=50 ROFF=1T VON=700M VOFF=0)
.MODEL S_VSWITCH_2 VSWITCH (RON=50 ROFF=1T VON=700M VOFF=0)
.MODEL S_VSWITCH_3 VSWITCH (RON=50 ROFF=1T VON=500M VOFF=100M)
.MODEL S_VSWITCH_4 VSWITCH (RON=50 ROFF=1T VON=500M VOFF=100M)
.MODEL S_VSWITCH_5 VSWITCH (RON=50 ROFF=1T VON=500M VOFF=100M)
.MODEL S_VSWITCH_6 VSWITCH (RON=50 ROFF=1T VON=500M VOFF=100M)
.MODEL S_VSWITCH_7 VSWITCH (RON=10M ROFF=1T VON=10M VOFF=0)
.MODEL S_VSWITCH_8 VSWITCH (RON=10M ROFF=1T VON=10M VOFF=0)
.MODEL S_VSWITCH_9 VSWITCH (RON=1M ROFF=1T VON=500M VOFF=100M)
.MODEL S_VSWITCH_10 VSWITCH (RON=50 ROFF=1T VON=500M VOFF=100M)
.MODEL S_VSWITCH_11 VSWITCH (RON=50 ROFF=1T VON=500M VOFF=100M)

.ENDS OPA2347
*
.SUBCKT VCCS_LIM_ZO_0  VC+ VC- IOUT+ IOUT-
.PARAM GAIN = 4E3
.PARAM IPOS = 15E3
.PARAM INEG = -15E3
G1 IOUT+ IOUT- VALUE={LIMIT(GAIN*V(VC+,VC-),INEG,IPOS)}
.ENDS
*


.SUBCKT FEMT_0  1 2
.PARAM FLWF=1E-3
.PARAM NLFF=0.7
.PARAM NVRF=0.7
.PARAM GLFF={PWR(FLWF,0.25)*NLFF/1164}
.PARAM RNVF={1.184*PWR(NVRF,2)}
.MODEL DVNF D KF={PWR(FLWF,0.5)/1E11} IS=1.0E-16
I1 0 7 10E-3
I2 0 8 10E-3
D1 7 0 DVNF
D2 8 0 DVNF
E1 3 6 7 8 {GLFF}
R1 3 0 1E9
R2 3 0 1E9
R3 3 6 1E9
E2 6 4 5 0 10
R4 5 0 {RNVF}
R5 5 0 {RNVF}
R6 3 4 1E9
R7 4 0 1E9
G1 1 2 3 4 1E-6
.ENDS
*


.SUBCKT VNSE_0  1 2
.PARAM FLW=1
.PARAM NLF=6700
.PARAM NVR=2460
.PARAM GLF={PWR(FLW,0.25)*NLF/1164}
.PARAM RNV={1.184*PWR(NVR,2)}
.MODEL DVN D KF={PWR(FLW,0.5)/1E11} IS=1.0E-16
I1 0 7 10E-3
I2 0 8 10E-3
D1 7 0 DVN
D2 8 0 DVN
E1 3 6 7 8 {GLF}
R1 3 0 1E9
R2 3 0 1E9
R3 3 6 1E9
E2 6 4 5 0 10
R4 5 0 {RNV}
R5 5 0 {RNV}
R6 3 4 1E9
R7 4 0 1E9
E3 1 2 3 4 1
.ENDS
*


.SUBCKT VCCS_LIM_2_0  VC+ VC- IOUT+ IOUT-
.PARAM GAIN = 9E-3
.PARAM IPOS = 0.06
.PARAM INEG = -0.06
G1 IOUT+ IOUT- VALUE={LIMIT(GAIN*V(VC+,VC-),INEG,IPOS)}
.ENDS
*


.SUBCKT VCCS_LIM_1_0  VC+ VC- IOUT+ IOUT-
.PARAM GAIN = 1E-4
.PARAM IPOS = .5
.PARAM INEG = -.5
G1 IOUT+ IOUT- VALUE={LIMIT(GAIN*V(VC+,VC-),INEG,IPOS)}
.ENDS
*


.SUBCKT VCCS_LIMIT_IQ_0  VC+ VC- IOUT+ IOUT-
.PARAM GAIN = 1E-3
G1 IOUT- IOUT+ VALUE={IF( (V(VC+,VC-)<=0),0,GAIN*V(VC+,VC-) )}
.ENDS
*


.SUBCKT CLAMP_AMP_LO_0  VC+ VC- VIN COM VO+ VO-
.PARAM G=1
GVO+ COM VO+ VALUE = {IF(V(VIN,COM)>V(VC+,COM),((V(VIN,COM)-V(VC+,COM))*G),0)}
GVO- COM VO- VALUE = {IF(V(VIN,COM)<V(VC-,COM),((V(VC-,COM)-V(VIN,COM))*G),0)}
.ENDS
*


.SUBCKT CLAMP_AMP_HI_0  VC+ VC- VIN COM VO+ VO-
.PARAM G=10
GVO+ COM VO+ VALUE = {IF(V(VIN,COM)>V(VC+,COM),((V(VIN,COM)-V(VC+,COM))*G),0)}
GVO- COM VO- VALUE = {IF(V(VIN,COM)<V(VC-,COM),((V(VC-,COM)-V(VIN,COM))*G),0)}
.ENDS
*


.SUBCKT VCCS_LIM_GR_0  VC+ VC- IOUT+ IOUT-
.PARAM GAIN = 1
.PARAM IPOS = 11
.PARAM INEG = -11
G1 IOUT+ IOUT- VALUE={LIMIT(GAIN*V(VC+,VC-),INEG,IPOS)}
.ENDS
*


.SUBCKT VCCS_LIM_4_0  VC+ VC- IOUT+ IOUT-
.PARAM GAIN = 1
.PARAM IPOS = 550E-3
.PARAM INEG = -550E-3
G1 IOUT+ IOUT- VALUE={LIMIT(GAIN*V(VC+,VC-),INEG,IPOS)}
.ENDS
*


.SUBCKT VCCS_LIM_CLAW+_0  VC+ VC- IOUT+ IOUT-
G1 IOUT+ IOUT- TABLE {ABS(V(VC+,VC-))} =
+(0, 1E-5)
+(5, 6.81E-4)
+(10, 1.36E-3)
+(15, 2.04E-3)
+(18.724, 2.53E-3)
.ENDS
*


.SUBCKT VCCS_LIM_CLAW-_0  VC+ VC- IOUT+ IOUT-
G1 IOUT+ IOUT- TABLE {ABS(V(VC+,VC-))} =
+(0, 1E-5)
+(5, 6.9E-4)
+(10, 1.36E-3)
+(15, 2.04E-3)
+(18.511, 2.51E-3)
.ENDS
*


.SUBCKT VCCS_LIM_3_0  VC+ VC- IOUT+ IOUT-
.PARAM GAIN = 1
.PARAM IPOS = 530E-3
.PARAM INEG = -530E-3
G1 IOUT+ IOUT- VALUE={LIMIT(GAIN*V(VC+,VC-),INEG,IPOS)}
.ENDS
*


.SUBCKT OL_SENSE_0  COM SW+ OLN  OLP
GSW+ COM SW+ VALUE = {IF((V(OLN,COM)>10E-3 | V(OLP,COM)>10E-3),1,0)}
.ENDS
*


.SUBCKT VCCS_EXT_LIM_0  VIN+ VIN- IOUT- IOUT+ VP+ VP-
.PARAM GAIN = 1
G1 IOUT+ IOUT- VALUE={LIMIT(GAIN*V(VIN+,VIN-),V(VP-,VIN-), V(VP+,VIN-))}
.ENDS
*


