* OPA2810 - Rev. A
* Created by Sean Cashin; 2020-02-04
* Created with Green-Williams-Lis Current Sense Amp Macro-model Architecture
* Copyright 2020 by Texas Instruments Corporation
******************************************************
* MACRO-MODEL SIMULATED PARAMETERS:
******************************************************
* AC PARAMETERS
**********************
* CLOSED-LOOP OUTPUT IMPEDANCE VS. FREQUENCY (Zout vs. Freq.)
* CLOSED-LOOP GAIN AND PHASE VS. FREQUENCY  WITH RL, CL EFFECTS (Acl vs. Freq.)
* COMMON-MODE REJECTION RATIO VS. FREQUENCY (CMRR vs. Freq.)
* POWER SUPPLY REJECTION RATIO VS. FREQUENCY (PSRR vs. Freq.)
* INPUT VOLTAGE NOISE DENSITY VS. FREQUENCY (en vs. Freq.)
**********************
* DC PARAMETERS
**********************
* INPUT COMMON-MODE VOLTAGE RANGE (Vcm)
* GAIN ERROR (Eg)
* INPUT BIAS CURRENT VS. INPUT COMMON-MODE VOLTAGE (Ib vs. Vcm)
* INPUT OFFSET VOLTAGE VS. TEMPERATURE (Vos vs. Temp)
* OUTPUT VOLTAGE SWING vs. OUTPUT CURRENT (Vout vs. Iout)
* SHORT-CIRCUIT OUTPUT CURRENT (Isc)
* QUIESCENT CURRENT (Iq)
**********************
* TRANSIENT PARAMETERS
**********************
* SLEW RATE (SR)
* SETTLING TIME VS. CAPACITIVE LOAD (ts)
* OVERLOAD RECOVERY TIME (tor)
******************************************************
.subckt OPA2810 IN+ IN- OUT VCC VEE
******************************************************
.MODEL R_NOISELESS RES (T_ABS=-273.15)
C_C10         MID N42834  1E-15   
C_C11         N44757 MID  1E-15   
C_C12         MID N45892  1E-15   
C_C13         N45974 MID  1E-15   
C_C14         MID N56659  1E-15   
C_C15         N56721 MID  1E-15   
C_C16         MID N61579  1E-15   
C_C17         MID N68747  1E-12   
C_C18         MID N68594  1E-12   
C_C19         MID SW_OL_OPA2810  1E-12   
C_C1A1         N709083 N709113  3.483E-12   
C_C1A14         N964771 N989204  3.979E-14   
C_C1A15         N993318 N993328  3.183E-13   
C_C1A20         N964475 N964485  227.4N   
C_C1A22         MID N964761  3.183E-14   
C_C1A3         N704975 N705005  1.447E-12   
C_C1A9         N701935 CMRR_0  800E-15   
C_C20         CLAMP MID  2.274E-9   
C_C33         N406634 0  1E-15   
C_C34         N317950 0  1   
C_C35         N406794 0  1E-15   
C_C36         N797682 MID  1.5F   
C_C7         N31014 MID  1E-15   
C_C8         MID N35813  1E-15   
C_C9         MID N38096  1E-15   
C_C_CMN         MID ESDN  3E-12   
C_C_CMP         ESDP MID  2E-12   
C_C_DIFF         ESDN ESDP  0.5E-12   
C_C_VCLP         VCLP MID  1E-12   
C_C_VIMON         MID VIMON  1E-9   
C_C_VOUT_S         MID VOUT_S  1E-9   
E_E2         N91498 MID CL_CLAMP MID 1
E_E3         N112292 MID OUT MID 1
E_E6         MID 0 N317950 0 1
G_G10         N73852 MID N55875 MID -1
G_G11         N55050 MID N56119 MID -1
G_G12         VSENSE MID CLAMP MID -1E-3
G_G15         CLAW_CLAMP MID N797682 MID -1E-3
G_G16         CL_CLAMP MID CLAW_CLAMP MID -1E-3
G_G2         CMRR_2 N10561 CMRR_0 MID -1E-3
G_G36         VCC_B 0 VCC 0 -1
G_G37         VEE_B 0 VEE 0 -1
G_G4         N704975 MID VEE_B MID -0.5112
G_G6         N25816 N11984 N709113 N705005 -1E-3
G_G60         N701935 MID ESDP MID -.08
G_G61         N709083 MID VCC_B MID -.63
G_G62         N797682 MID VSENSE MID -1E-6
G_G64         N964475 MID CL_CLAMP N851538 -90
G_G68         N964495 MID N964485 MID -463.1
G_G8         VCC_CLP MID N35813 MID -1E-3
G_G9         VEE_CLP MID N38096 MID -1E-3
G_GB1         N964771 MID N964501 MID -1
G_GB3         N993318 MID N989204 MID -250
I_I_B         N06456 MID DC 2E-12  
I_I_OS         ESDN MID DC 1E-12  
I_I_Q         VCC VEE DC 3.7E-3  
R_R1         ESDP IN+ R_NOISELESS 10E-3
R_R10         ESDN N11991 R_NOISELESS 1E-3
R_R107         VCC_B 0 R_NOISELESS 1
R_R108         N317950 0 R_NOISELESS 1E12
R_R109         VEE_B 0 R_NOISELESS 1
R_R110         VCC_B N406634 R_NOISELESS 1E-3
R_R111         N406634 N317950 R_NOISELESS 1E6
R_R112         N317950 N406794 R_NOISELESS 1E6
R_R113         N406794 VEE_B R_NOISELESS 1E-3
R_R135         N701935 MID R_NOISELESS 1
R_R136         N704975 MID R_NOISELESS 1
R_R142         N797682 MID R_NOISELESS 1E6
R_R151         MID N851530 R_NOISELESS 1
R_R162         MID N964475 R_NOISELESS 1
R_R163         MID N964495 R_NOISELESS 1
R_R164         MID N964771 R_NOISELESS 1
R_R168         MID N993318 R_NOISELESS 1
R_R1A         N964485 N964475 R_NOISELESS 10K
R_R1A1         N989204 N964771 R_NOISELESS 10K
R_R1A10         N701935 CMRR_0 R_NOISELESS 1E8
R_R1A2         N993328 N993318 R_NOISELESS 10K
R_R1A3         N704975 N705005 R_NOISELESS 1E8
R_R1A4         N709083 N709113 R_NOISELESS 1E8
R_R1B5         N964761 N964501 R_NOISELESS 10K
R_R2         ESDN IN- R_NOISELESS 10E-3
R_R21         N11984 N25816 R_NOISELESS 1E3
R_R25         MID N28602 R_NOISELESS 1E9
R_R26         N30136 MID R_NOISELESS 1E9
R_R27         MID N30913 R_NOISELESS 1
R_R28         N31014 N30913 R_NOISELESS 1E-3
R_R29         N35669 VCC_B R_NOISELESS 1E3
R_R2A1         N709113 MID R_NOISELESS 500
R_R2A10         CMRR_0 MID R_NOISELESS 6.7E3
R_R2A13         MID N989204 R_NOISELESS 40.16
R_R2A14         MID N993328 R_NOISELESS 4.545K
R_R2A17         MID N964485 R_NOISELESS 22.05
R_R2A3         N705005 MID R_NOISELESS 1.1E3
R_R2B3         N964501 N964495 R_NOISELESS 9E5
R_R3         MID ESDP R_NOISELESS 12E9
R_R30         N35813 N35669 R_NOISELESS 1E-3
R_R31         VCC_CLP MID R_NOISELESS 1E3
R_R32         N38050 VEE_B R_NOISELESS 1E3
R_R33         N38096 N38050 R_NOISELESS 1E-3
R_R34         VEE_CLP MID R_NOISELESS 1E3
R_R35         MID VCC_CLP R_NOISELESS 1E9
R_R36         N42663 MID R_NOISELESS 1
R_R37         N42834 N42663 R_NOISELESS 1E-3
R_R38         N44757 N44799 R_NOISELESS 1E-3
R_R39         MID N44799 R_NOISELESS 1
R_R4         ESDN MID R_NOISELESS 12E9
R_R40         MID VEE_CLP R_NOISELESS 1E9
R_R41         MID N50645 R_NOISELESS 1E9
R_R42         N45856 MID R_NOISELESS 1
R_R43         N45892 N45856 R_NOISELESS 1E-3
R_R44         N45974 N45986 R_NOISELESS 1E-3
R_R45         MID N45986 R_NOISELESS 1
R_R46         MID N48550 R_NOISELESS 1E9
R_R47         MID N73852 R_NOISELESS 1
R_R48         MID N55050 R_NOISELESS 1
R_R49         MID N56919 R_NOISELESS 1E9
R_R5         N709083 MID R_NOISELESS 1
R_R50         N56635 MID R_NOISELESS 1
R_R51         N56659 N56635 R_NOISELESS 1E-3
R_R52         N56721 N56733 R_NOISELESS 1E-3
R_R53         MID N56733 R_NOISELESS 1
R_R54         MID N56891 R_NOISELESS 1E9
R_R55         N61579 VSENSE R_NOISELESS 1E-3
R_R56         N68747 OLN R_NOISELESS 100
R_R57         N68594 OLP R_NOISELESS 100
R_R58         N69264 MID R_NOISELESS 1
R_R59         N69264 SW_OL_OPA2810 R_NOISELESS 100
R_R60         MID AOLNET R_NOISELESS 1E6
R_R61         MID CLAMP R_NOISELESS 1E6
R_R62         MID VSENSE R_NOISELESS 1E3
R_R65         MID CLAW_CLAMP R_NOISELESS 1E3
R_R66         MID CL_CLAMP R_NOISELESS 1E3
R_R8         N10561 CMRR_2 R_NOISELESS 1E3
R_R81         MID N110431 R_NOISELESS 1E9
R_R83         MID N112292 R_NOISELESS 1E9
R_R9         CMRR_2 N11984 R_NOISELESS 1E-3
R_RDUMMY1         MID N851538 R_NOISELESS 10K
R_RX1         N851538 N851530 R_NOISELESS 100K
R_R_VCLP         N91498 VCLP R_NOISELESS 100
R_R_VIMON         VIMON N110431 R_NOISELESS 100
R_R_VOUT_S         VOUT_S N112292 R_NOISELESS 100
V_VCM_MAX         N30136 VCC_B 0.3
V_VCM_MIN         N28602 VEE_B -0.3
V_V_GRN         N56891 MID -125
V_V_GRP         N56919 MID 125
V_V_ISCN         N48550 MID -75
V_V_ISCP         N50645 MID 70
V_V_ORN         N55875 VCLP -17.52
V_V_ORP         N56119 VCLP 17.52
X_AOL_1_OPA2810         N31014 N11991 MID AOLNET AOL_1_OPA2810 
X_AOL_2         AOLNET MID MID CLAMP AOL_2_OPA2810 
X_CLAWN         MID VIMON VEE_B N38050 CLAWN_OPA2810 
X_CLAWP         VIMON MID N35669 VCC_B CLAWP_OPA2810 
X_CLAW_AMP         VCC_CLP VEE_CLP VOUT_S MID N42663 N44799 CLAMP_AMP_LO_OPA2810 
X_CLAW_SRC         N42834 N44757 CLAW_CLAMP MID CLAW_SRC_OPA2810 
X_CL_AMP         N50645 N48550 VIMON MID N45856 N45986 CLAMP_AMP_LO_OPA2810 
X_CL_SRC         N45892 N45974 CL_CLAMP MID CL_SRC_OPA2810 
X_ESD_IN         ESDN ESDP VCC VEE ESD_IN_OPA2810 
X_ESD_OUT         OUT VCC VEE ESD_OUT_OPA2810 
X_E_N         ESDP N06456 VNSE_OPA2810 
X_GR_AMP         N56919 N56891 N61579 MID N56635 N56733 CLAMP_AMP_HI_OPA2810 
X_GR_SRC         N56659 N56721 CLAMP MID GR_SRC_OPA2810 
X_H1    N73852 N166377 OLN MID 08_OP_AMP_COMPLETE_H1_OPA2810 
X_H2    N55050 N166817 OLP MID 08_OP_AMP_COMPLETE_H2_OPA2810 
X_H3    OUT N851538 N110431 MID 08_OP_AMP_COMPLETE_H3_OPA2810 
X_IQ_N         MID VIMON MID VEE IQ_SRC_OPA2810 
X_IQ_P         VIMON MID VCC MID IQ_SRC_OPA2810 
X_I_NN         ESDN MID FEMT_OPA2810 
X_I_NP         N06456 MID FEMT_OPA2810 
X_OL_SENSE         MID N69264 N68747 N68594 OL_SENSE_OPA2810 
X_SW_OL         SW_OL_OPA2810 MID N964475 N964485 SW_OL_OPA2810 
X_SW_OR         CLAMP N166377 N166817 SW_OR_OPA2810 
X_VCM_CLAMP         N25816 MID N30913 MID N30136 N28602 VCM_CLAMP_OPA2810 
X_VOS_DRIFT         N749288 N06456 VOS_DRIFT_OPA2810 
X_VOS_VS_VCM         N10561 N749288 VCC VEE VOS_VS_VCM_OPA2810 
X_ZO_SRC         N993328 MID MID N851530 ZO_SRC_OPA2810 
.ENDS  OPA2810
*
.SUBCKT 08_OP_AMP_COMPLETE_H1_OPA2810 1 2 3 4  
H_H1         3 4 VH_H1 1
VH_H1         1 2 0V
.ENDS  08_OP_AMP_COMPLETE_H1_OPA2810
*
.SUBCKT 08_OP_AMP_COMPLETE_H2_OPA2810 1 2 3 4  
H_H2         3 4 VH_H2 -1
VH_H2         1 2 0V
.ENDS  08_OP_AMP_COMPLETE_H2_OPA2810
*
.SUBCKT 08_OP_AMP_COMPLETE_H3_OPA2810 1 2 3 4  
H_H3         3 4 VH_H3 -1E3
VH_H3         1 2 0V
.ENDS  08_OP_AMP_COMPLETE_H3_OPA2810
*
.SUBCKT AOL_1_OPA2810 VC+ VC- IOUT+ IOUT-
.PARAM GAIN = 1E-4
.PARAM IPOS = .5
.PARAM INEG = -.5
G1 IOUT+ IOUT- VALUE={LIMIT(GAIN*V(VC+,VC-),INEG,IPOS)}
.ENDS  AOL_1_OPA2810
*
.SUBCKT AOL_2_OPA2810 VC+ VC- IOUT+ IOUT-
.PARAM GAIN = 1E-2
.PARAM IPOS = 0.437
.PARAM INEG = -0.437
G1 IOUT+ IOUT- VALUE={LIMIT(GAIN*V(VC+,VC-),INEG,IPOS)}
.ENDS  AOL_2_OPA2810
*
.SUBCKT CLAMP_AMP_HI_OPA2810 VC+ VC- VIN COM VO+ VO-
.PARAM G=10
GVO+ COM VO+ VALUE = {IF(V(VIN,COM)>V(VC+,COM),((V(VIN,COM)-V(VC+,COM))*G),0)}
GVO- COM VO- VALUE = {IF(V(VIN,COM)<V(VC-,COM),((V(VC-,COM)-V(VIN,COM))*G),0)}
.ENDS  CLAMP_AMP_HI_OPA2810
*
.SUBCKT CLAMP_AMP_LO_OPA2810 VC+ VC- VIN COM VO+ VO-
.PARAM G=1
GVO+ COM VO+ VALUE = {IF(V(VIN,COM)>V(VC+,COM),((V(VIN,COM)-V(VC+,COM))*G),0)}
GVO- COM VO- VALUE = {IF(V(VIN,COM)<V(VC-,COM),((V(VC-,COM)-V(VIN,COM))*G),0)}
.ENDS  CLAMP_AMP_LO_OPA2810
*
.SUBCKT CLAWN_OPA2810 VC+ VC- IOUT+ IOUT-
G1 IOUT+ IOUT- TABLE {(V(VC+,VC-))} =
+(0.392, 1.30E-4)
+(20.863, 1.40E-5)
+(33.725, 2.07E-4)
+(45.098, 2.07E-4)
+(51.765, 3.24E-4)
+(65.804, 2.07E-4)
+(69.822, 4.4E-4)
.ENDS  CLAWN_OPA2810
*
.SUBCKT CLAWP_OPA2810 VC+ VC- IOUT+ IOUT-
G1 IOUT+ IOUT- TABLE {(V(VC+,VC-))} =
+(0, 1.4E-5)
+(19.608, 1.69E-4)
+(34.98, 2.85E-4)
+(44.784, 4.79E-4)
+(50.667, 6.33E-4)
+(55.608, 9.43E-4)
+(59.922, 1.25E-3)
+(64.471, 1.68E-3)
+(69.569, 2.65E-3)
.ENDS  CLAWP_OPA2810
*
.SUBCKT CLAW_SRC_OPA2810 VC+ VC- IOUT+ IOUT-
.PARAM GAIN = 1
.PARAM IPOS = 0.25
.PARAM INEG = -0.25
G1 IOUT+ IOUT- VALUE={LIMIT(GAIN*V(VC+,VC-),INEG,IPOS)}
.ENDS  CLAW_SRC_OPA2810
*
.SUBCKT CL_SRC_OPA2810 VC+ VC- IOUT+ IOUT-
.PARAM GAIN = 1
.PARAM IPOS = 0.5
.PARAM INEG = -0.5
G1 IOUT+ IOUT- VALUE={LIMIT(GAIN*V(VC+,VC-),INEG,IPOS)}
.ENDS  CL_SRC_OPA2810
*
.SUBCKT ESD_IN_OPA2810 ESDN ESDP VCC VEE
.MODEL ESD_SW VSWITCH(RON=50 ROFF=1E12 VON=500E-3 VOFF=450E-3)
S1 VCC ESDN ESDN VCC ESD_SW
S2 VCC ESDP ESDP VCC ESD_SW
S3 ESDN VEE VEE ESDN ESD_SW
S4 ESDP VEE VEE ESDP ESD_SW
.ENDS  ESD_IN_OPA2810
*
.SUBCKT ESD_OUT_OPA2810 OUT VCC VEE
.MODEL ESD_SW VSWITCH(RON=50 ROFF=1E12 VON=500E-3 VOFF=450E-3)
S1 VCC OUT OUT VCC ESD_SW
S2 OUT VEE VEE OUT ESD_SW
.ENDS  ESD_OUT_OPA2810
*
.SUBCKT FEMT_OPA2810 1 2
.PARAM NVRF=5
.PARAM RNVF={1.184*PWR(NVRF,2)}
E1 3 0 5 0 10
R1 5 0 {RNVF}
R2 5 0 {RNVF}
G1 1 2 3 0 1E-6
.ENDS  FEMT_OPA2810
*
.SUBCKT GR_SRC_OPA2810 VC+ VC- IOUT+ IOUT-
.PARAM GAIN = 1
.PARAM IPOS = 1.4
.PARAM INEG = -1.4
G1 IOUT+ IOUT- VALUE={LIMIT(GAIN*V(VC+,VC-),INEG,IPOS)}
.ENDS  GR_SRC_OPA2810
*
.SUBCKT IQ_SRC_OPA2810 VC+ VC- IOUT+ IOUT-
.PARAM GAIN = 1E-3
G1 IOUT+ IOUT- VALUE={IF( (V(VC+,VC-)<=0),0,GAIN*V(VC+,VC-) )}
.ENDS  IQ_SRC_OPA2810
*
.SUBCKT OL_SENSE_OPA2810 1   2  3  4
GSW+ 1 2 VALUE = {IF((V(3,1)>10E-3 | V(4,1)>10E-3),1,0)}
.ENDS  OL_SENSE_OPA2810
*
.SUBCKT SW_OL_OPA2810 SW_OL_OPA2810 MID CAP_L CAP_R
.MODEL OL_SW VSWITCH(RON=1E-3 ROFF=1E9 VON=900E-3 VOFF=800E-3)
S1 CAP_L CAP_R SW_OL_OPA2810 MID OL_SW
.ENDS  SW_OL_OPA2810
*
.SUBCKT SW_OR_OPA2810 CLAMP OLN OLP
.MODEL OR_SW VSWITCH(RON=10E-3 ROFF=1E9 VON=10E-3 VOFF=0)
S1 OLP CLAMP CLAMP OLP OR_SW
S2 CLAMP OLN OLN CLAMP OR_SW
.ENDS  SW_OR_OPA2810
*
.SUBCKT VCM_CLAMP_OPA2810 VIN+ VIN- IOUT- IOUT+ VP+ VP-
.PARAM GAIN = 1
G1 IOUT+ IOUT- VALUE={LIMIT(GAIN*V(VIN+,VIN-),V(VP-,VIN-), V(VP+,VIN-))}
.ENDS  VCM_CLAMP_OPA2810
*
.SUBCKT VNSE_OPA2810 1 2
.PARAM FLW=1
.PARAM NLF=450
.PARAM NVR=6
.PARAM GLF={PWR(FLW,0.25)*NLF/1164}
.PARAM RNV={1.184*PWR(NVR,2)}
.MODEL DVN D KF={PWR(FLW,0.5)/1E11} IS=1.0E-16
I1 0 7 10E-3
I2 0 8 10E-3
D1 7 0 DVN
D2 8 0 DVN
E1 3 6 7 8 {GLF}
R1 3 0 1E9
R2 3 0 1E9
R3 3 6 1E9
E2 6 4 5 0 10
R4 5 0 {RNV}
R5 5 0 {RNV}
R6 3 4 1E9
R7 4 0 1E9
E3 1 2 3 4 1
.ENDS  VNSE_OPA2810
*
.SUBCKT VOS_DRIFT_OPA2810 VOS+ VOS-
.PARAM DC = -6.2E-6
.PARAM POL = 1
.PARAM DRIFT = 1.5E-6
E1 VOS+ VOS- VALUE={DC+POL*DRIFT*(TEMP-27)}
.ENDS  VOS_DRIFT_OPA2810
*
.SUBCKT VOS_VS_VCM_OPA2810 V+ V- REF+ REF-
E1 V+ 1 TABLE {(V(REF+, V-))} =
+(0.35, 450E-6)
+(0.4, 435E-6)
+(0.55, 275E-6)
+(0.65, 150E-6)
+(0.75, 75E-6)
+(0.85, 25E-6)
+(1, 0)
V1 1 V- 0
.ENDS  VOS_VS_VCM_OPA2810
*
.SUBCKT ZO_SRC_OPA2810 VC+ VC- IOUT+ IOUT-
.PARAM GAIN = 3.2
.PARAM IPOS = 14E3
.PARAM INEG = -14E3
G1 IOUT+ IOUT- VALUE={LIMIT(GAIN*V(VC+,VC-),INEG,IPOS)}
.ENDS  ZO_SRC_OPA2810
*
