* OPA2544
*****************************************************************************
* (C) Copyright 2011 Texas Instruments Incorporated. All rights reserved.                                            
*****************************************************************************
** This model is designed as an aid for customers of Texas Instruments.
** TI and its licensors and suppliers make no warranties, either expressed
** or implied, with respect to this model, including the warranties of 
** merchantability or fitness for a particular purpose.  The model is
** provided solely on an "as is" basis.  The entire risk as to its quality
** and performance is with the customer.
*****************************************************************************
*
* This model is subject to change without notice. Texas Instruments
* Incorporated is not responsible for updating this model.
*
*****************************************************************************
*
** Released by: Analog eLab Design Center, Texas Instruments Inc.
* Part: OPA2544
* Date: 24JUN2011
* Model Type: ALL-IN-ONE
* Simulator: PSPICE
* Simulator Version: 16.0.0.p001
* EVM Order Number: N/A
* EVM Users Guide: N/A
* Datasheet: SBOS037
*
* Model Version: 1.0
*
*****************************************************************************
*
* Updates:
*
* Version 1.0 : 
* Release to Web
*
*****************************************************************************
* THIS MODEL IS APPLICABLE TO OPA544 OPA2544
* connections:   non-inverting input

*                | inverting input

*                | | positive power supply

*                | | | negative power supply

*                | | | | output

*                | | | | |

.SUBCKT OPA2544   1 2 3 4 5

*

C1   11 12 2.200E-12

C2    6  7 10.00E-12

DC    5 53 DX

DE   54  5 DX

DLP  90 91 DX

DLN  92 90 DX

DP    4  3 DX

EGND 99  0 POLY(2) (3,0) (4,0) 0 .5 .5

FB    7 99 POLY(5) VB VC VE VLP VLN 0 9.446E9 -9E9 9E9 9E9 -9E9

GA    6  0 11 12 87.96E-6

GCM   0  6 10 99 440.9E-12

ISS  10  4 DC 80.00E-6

HLIM 90  0 VLIM 1E3

J1   11  2 10 JX

J2   12  1 10 JX

R2    6  9 100.0E3

RD1   3 11 11.37E3

RD2   3 12 11.37E3

RO1   8  5 .17

RO2   7 99 .17

RP    3  4 5.833E3

RSS  10 99 2.500E6

VB    9  0 DC 0

VC    3 53 DC 4.400

VE   54  4 DC 3.800

VLIM  7  8 DC 0

VLP  91  0 DC 4.000E3

VLN   0 92 DC 4.000E3

.MODEL DX D(IS=800.0E-18)

.MODEL JX NJF(IS=7.500E-12 BETA=96.72E-6 VTO=-1)

.ENDS

*