* OPA244 - Rev. B
* Created by Bala Ravi; May 10, 2019 - Revised by GPAMPS Team; 2021-07-16
* Created with Green-Williams-Lis Op Amp Macro-model Architecture
* Copyright 2019 by Texas Instruments Corporation
******************************************************
* MACRO-MODEL SIMULATED PARAMETERS:
******************************************************
* OPEN-LOOP GAIN AND PHASE VS. FREQUENCY  WITH RL, CL EFFECTS (Aol)
* UNITY GAIN BANDWIDTH (GBW)
* INPUT COMMON-MODE REJECTION RATIO VS. FREQUENCY (CMRR)
* POWER SUPPLY REJECTION RATIO VS. FREQUENCY (PSRR)
* DIFFERENTIAL INPUT IMPEDANCE (Zid)
* COMMON-MODE INPUT IMPEDANCE (Zic)
* OPEN-LOOP OUTPUT IMPEDANCE VS. FREQUENCY (Zo)
* OUTPUT CURRENT THROUGH THE SUPPLY (Iout)
* INPUT VOLTAGE NOISE DENSITY VS. FREQUENCY (en)
* INPUT CURRENT NOISE DENSITY VS. FREQUENCY (in)
* OUTPUT VOLTAGE SWING vs. OUTPUT CURRENT (Vo)
* SHORT-CIRCUIT OUTPUT CURRENT (Isc)
* QUIESCENT CURRENT (Iq)
* SETTLING TIME VS. CAPACITIVE LOAD (ts)
* SLEW RATE (SR)
* SMALL SIGNAL OVERSHOOT VS. CAPACITIVE LOAD
* LARGE SIGNAL RESPONSE
* OVERLOAD RECOVERY TIME (tor)
* INPUT BIAS CURRENT (Ib)
* INPUT OFFSET CURRENT (Ios)
* INPUT OFFSET VOLTAGE (Vos)
* INPUT COMMON-MODE VOLTAGE RANGE (Vcm)
* INPUT OFFSET VOLTAGE VS. INPUT COMMON-MODE VOLTAGE (Vos vs. Vcm)
* INPUT/OUTPUT ESD CELLS (ESDin, ESDout)
******************************************************
.subckt OPA244 IN+ IN- VCC VEE OUT
******************************************************
* MODEL DEFINITIONS:
.model BB_SW VSWITCH(Ron=50 Roff=1e12 Von=700e-3 Voff=0)
.model ESD_SW VSWITCH(Ron=50 Roff=1e12 Von=250e-3 Voff=0)
.model OL_SW VSWITCH(Ron=1e-3 Roff=1e9 Von=900e-3 Voff=800e-3)
.model OR_SW VSWITCH(Ron=10e-3 Roff=1e9 Von=1e-3 Voff=0)
.model R_NOISELESS RES(T_ABS=-273.15)
******************************************************


I_OS        ESDn MID -9N
I_B         22 MID -10N
V_GRp       55 MID 53
V_GRn       56 MID -71
V_ISCp      49 MID 12
V_ISCn      50 MID -25
V_ORn       30 VCLP -1.65
V11         54 29 0
V_ORp       28 VCLP 1.05
V12         53 27 0
V4          42 OUT 0
VCM_MIN     77 VEE_B 0
VCM_MAX     78 VCC_B -900M
I_Q         VCC VEE 50U
XU1         21 22 VOS_DRIFT_0
XIn11       ESDn MID FEMT_0
Xi_n        MID 22 FEMT_0
Xe_n        ESDp 22 VNSE_0
S5          VEE ESDp VEE ESDp  S_VSWITCH_1
S4          VEE ESDn VEE ESDn  S_VSWITCH_2
S2          ESDn VCC ESDn VCC  S_VSWITCH_3
S3          ESDp VCC ESDp VCC  S_VSWITCH_4
C28         23 MID 1P  
R77         24 23 R_NOISELESS 100 
C27         25 MID 1P  
R76         26 25 R_NOISELESS 100 
R75         MID 27 R_NOISELESS 1 
GVCCS8      27 MID 28 MID  -1
R74         29 MID R_NOISELESS 1 
GVCCS7      29 MID 30 MID  -1
R73         31 MID R_NOISELESS 1 
XVCCS_LIM_ZO 32 MID MID 31 VCCS_LIM_ZO_0
C25         33 MID 165F  
R69         MID 33 R_NOISELESS 1MEG 
GVCCS6      33 MID VSENSE MID  -1U
C20         CLAMP MID 115N  
R68         MID CLAMP R_NOISELESS 1MEG 
XVCCS_LIM_2 34 MID MID CLAMP VCCS_LIM_2_0
R44         MID 34 R_NOISELESS 1MEG 
XVCCS_LIM_1 35 36 MID 34 VCCS_LIM_1_0
R72         32 MID R_NOISELESS 2.5 
C26         32 37 636.6F  
R71         32 37 R_NOISELESS 10K 
R70         37 MID R_NOISELESS 1 
R65         37 MID R_NOISELESS 1 
GVCCS4      37 MID 38 MID  -3.05
C22         39 38 106.1P  
R64         38 MID R_NOISELESS 4.87K 
R63         38 39 R_NOISELESS 10K 
R62         39 MID R_NOISELESS 1 
GVCCS3      39 MID 40 MID  -2.4
C21         41 40 630N  
R51         40 MID R_NOISELESS 15K 
R50         40 41 R_NOISELESS 10K 
Rdummy      MID 42 R_NOISELESS 4.8K 
Rx          42 31 R_NOISELESS 48K 
Rdc         41 MID R_NOISELESS 1 
G_Aol_Zo    41 MID CL_CLAMP 42  -25
R61         MID 43 R_NOISELESS 13.89K 
C16         43 44 31.83P  
R58         44 43 R_NOISELESS 100MEG 
GVCCS2      44 MID VEE_B MID  -37.57M
R57         MID 44 R_NOISELESS 1 
R56         MID 45 R_NOISELESS 13.89K 
C15         45 46 31.83P  
R55         46 45 R_NOISELESS 100MEG 
GVCCS1      46 MID VCC_B MID  -37.57M
R54         MID 46 R_NOISELESS 1 
R49         MID 47 R_NOISELESS 114.2K 
C14         47 48 2.65P  
R48         48 47 R_NOISELESS 100MEG 
G_adjust    48 MID ESDp MID  -27.82M
Rsrc        MID 48 R_NOISELESS 1 
XIQPos      VIMON MID MID VCC VCCS_LIMIT_IQ_0
XIQNeg      MID VIMON VEE MID VCCS_LIMIT_IQ_0
C_DIFF      ESDp ESDn 2P  
XCL_AMP     49 50 VIMON MID 51 52 CLAMP_AMP_LO_0
SOR_SWp     CLAMP 53 CLAMP 53  S_VSWITCH_5
SOR_SWn     54 CLAMP 54 CLAMP  S_VSWITCH_6
XGR_AMP     55 56 57 MID 58 59 CLAMP_AMP_HI_0
R39         55 MID R_NOISELESS 1T 
R37         56 MID R_NOISELESS 1T 
R42         VSENSE 57 R_NOISELESS 1M 
C19         57 MID 1F  
R38         58 MID R_NOISELESS 1 
R36         MID 59 R_NOISELESS 1 
R40         58 60 R_NOISELESS 1M 
R41         59 61 R_NOISELESS 1M 
C17         60 MID 1F  
C18         MID 61 1F  
XGR_SRC     60 61 CLAMP MID VCCS_LIM_GR_0
R21         51 MID R_NOISELESS 1 
R20         MID 52 R_NOISELESS 1 
R29         51 62 R_NOISELESS 1M 
R30         52 63 R_NOISELESS 1M 
C9          62 MID 1F  
C8          MID 63 1F  
XCL_SRC     62 63 CL_CLAMP MID VCCS_LIM_4_0
R22         49 MID R_NOISELESS 1T 
R19         MID 50 R_NOISELESS 1T 
XCLAWp      VIMON MID 64 VCC_B VCCS_LIM_CLAW+_0
XCLAWn      MID VIMON VEE_B 65 VCCS_LIM_CLAW-_0
R12         64 VCC_B R_NOISELESS 1K 
R16         64 66 R_NOISELESS 1M 
R13         VEE_B 65 R_NOISELESS 1K 
R17         67 65 R_NOISELESS 1M 
C6          67 MID 1F  
C5          MID 66 1F  
G2          VCC_CLP MID 66 MID  -1M
R15         VCC_CLP MID R_NOISELESS 1K 
G3          VEE_CLP MID 67 MID  -1M
R14         MID VEE_CLP R_NOISELESS 1K 
XCLAW_AMP   VCC_CLP VEE_CLP VOUT_S MID 68 69 CLAMP_AMP_LO_0
R26         VCC_CLP MID R_NOISELESS 1T 
R23         VEE_CLP MID R_NOISELESS 1T 
R25         68 MID R_NOISELESS 1 
R24         MID 69 R_NOISELESS 1 
R27         68 70 R_NOISELESS 1M 
R28         69 71 R_NOISELESS 1M 
C11         70 MID 1F  
C10         MID 71 1F  
XCLAW_SRC   70 71 CLAW_CLAMP MID VCCS_LIM_3_0
H2          26 MID V11 -1
H3          24 MID V12 1
C12         SW_OL MID 100P  
R32         72 SW_OL R_NOISELESS 100 
R31         72 MID R_NOISELESS 1 
XOL_SENSE   MID 72 25 23 OL_SENSE_0
S1          41 40 SW_OL MID  S_VSWITCH_7
H1          73 MID V4 1K
S7          VEE OUT VEE OUT  S_VSWITCH_8
S6          OUT VCC OUT VCC  S_VSWITCH_9
R11         MID 74 R_NOISELESS 1T 
R18         74 VOUT_S R_NOISELESS 100 
C7          VOUT_S MID 1N  
E5          74 MID OUT MID  1
C13         VIMON MID 1N  
R33         73 VIMON R_NOISELESS 100 
R10         MID 73 R_NOISELESS 1T 
R47         75 VCLP R_NOISELESS 100 
C24         VCLP MID 100P  
E4          75 MID CL_CLAMP MID  1
R46         MID CL_CLAMP R_NOISELESS 1K 
G9          CL_CLAMP MID CLAW_CLAMP MID  -1M
R45         MID CLAW_CLAMP R_NOISELESS 1K 
G8          CLAW_CLAMP MID 33 MID  -1M
R43         MID VSENSE R_NOISELESS 1K 
G15         VSENSE MID CLAMP MID  -1M
C4          35 MID 1F  
R9          35 76 R_NOISELESS 1M 
R7          MID 77 R_NOISELESS 1T 
R6          78 MID R_NOISELESS 1T 
R8          MID 76 R_NOISELESS 1 
XVCM_CLAMP  79 MID 76 MID 78 77 VCCS_EXT_LIM_0
E1          MID 0 80 0  1
R89         VEE_B 0 R_NOISELESS 1 
R5          81 VEE_B R_NOISELESS 1M 
C3          81 0 1F  
R60         80 81 R_NOISELESS 1MEG 
C1          80 0 100e-9  
R3          80 0 R_NOISELESS 1T 
R59         82 80 R_NOISELESS 1MEG 
C2          82 0 1F  
R4          VCC_B 82 R_NOISELESS 1M 
R88         VCC_B 0 R_NOISELESS 1 
G17         VEE_B 0 VEE 0  -1
G16         VCC_B 0 VCC 0  -1
R_PSR       83 79 R_NOISELESS 1K 
G_PSR       79 83 45 43  -1M
R2          36 ESDn R_NOISELESS 1M 
R1          83 84 R_NOISELESS 1M 
R_CMR       21 84 R_NOISELESS 1K 
G_CMR       84 21 47 MID  -1M
C_CMn       ESDn MID 2P  
C_CMp       MID ESDp 2P  
R53         ESDn MID R_NOISELESS 1T 
R52         MID ESDp R_NOISELESS 1T 
R35         IN- ESDn R_NOISELESS 10M 
R34         IN+ ESDp R_NOISELESS 10M 

.MODEL S_VSWITCH_1 VSWITCH (RON=50 ROFF=1T VON=500M VOFF=100M)
.MODEL S_VSWITCH_2 VSWITCH (RON=50 ROFF=1T VON=500M VOFF=100M)
.MODEL S_VSWITCH_3 VSWITCH (RON=50 ROFF=1T VON=500M VOFF=100M)
.MODEL S_VSWITCH_4 VSWITCH (RON=50 ROFF=1T VON=500M VOFF=100M)
.MODEL S_VSWITCH_5 VSWITCH (RON=10M ROFF=1T VON=10M VOFF=0)
.MODEL S_VSWITCH_6 VSWITCH (RON=10M ROFF=1T VON=10M VOFF=0)
.MODEL S_VSWITCH_7 VSWITCH (RON=1M ROFF=1T VON=500M VOFF=100M)
.MODEL S_VSWITCH_8 VSWITCH (RON=50 ROFF=1T VON=500M VOFF=100M)
.MODEL S_VSWITCH_9 VSWITCH (RON=50 ROFF=1T VON=500M VOFF=100M)

.ENDS OPA244
*
.SUBCKT VOS_DRIFT_0  VOS+ VOS-
.PARAM DC = 512E-6
.PARAM POL = 1
.PARAM DRIFT = 4E-6
E1 VOS+ VOS- VALUE={DC+POL*DRIFT*(TEMP-27)}
.ENDS
*


.SUBCKT FEMT_0  1 2
.PARAM FLWF=1
.PARAM NLFF=421
.PARAM NVRF=40
.PARAM GLFF={PWR(FLWF,0.25)*NLFF/1164}
.PARAM RNVF={1.184*PWR(NVRF,2)}
.MODEL DVNF D KF={PWR(FLWF,0.5)/1E11} IS=1.0E-16
I1 0 7 10E-3
I2 0 8 10E-3
D1 7 0 DVNF
D2 8 0 DVNF
E1 3 6 7 8 {GLFF}
R1 3 0 1E9
R2 3 0 1E9
R3 3 6 1E9
E2 6 4 5 0 10
R4 5 0 {RNVF}
R5 5 0 {RNVF}
R6 3 4 1E9
R7 4 0 1E9
G1 1 2 3 4 1E-6
.ENDS
*


.SUBCKT VNSE_0  1 2
.PARAM FLW=1
.PARAM NLF=62.24
.PARAM NVR=23.1
.PARAM GLF={PWR(FLW,0.25)*NLF/1164}
.PARAM RNV={1.184*PWR(NVR,2)}
.MODEL DVN D KF={PWR(FLW,0.5)/1E11} IS=1.0E-16
I1 0 7 10E-3
I2 0 8 10E-3
D1 7 0 DVN
D2 8 0 DVN
E1 3 6 7 8 {GLF}
R1 3 0 1E9
R2 3 0 1E9
R3 3 6 1E9
E2 6 4 5 0 10
R4 5 0 {RNV}
R5 5 0 {RNV}
R6 3 4 1E9
R7 4 0 1E9
E3 1 2 3 4 1
.ENDS
*


.SUBCKT VCCS_LIM_ZO_0  VC+ VC- IOUT+ IOUT-
.PARAM GAIN = 4E3
.PARAM IPOS = 1.152E3
.PARAM INEG = -2.4E3
G1 IOUT+ IOUT- VALUE={LIMIT(GAIN*V(VC+,VC-),INEG,IPOS)}
.ENDS
*


.SUBCKT VCCS_LIM_2_0  VC+ VC- IOUT+ IOUT-
.PARAM GAIN = 5.5E-3
.PARAM IPOS = 0.0282
.PARAM INEG = -0.0184
G1 IOUT+ IOUT- VALUE={LIMIT(GAIN*V(VC+,VC-),INEG,IPOS)}
.ENDS
*


.SUBCKT VCCS_LIM_1_0  VC+ VC- IOUT+ IOUT-
.PARAM GAIN = 1E-4
.PARAM IPOS = .5
.PARAM INEG = -.5
G1 IOUT+ IOUT- VALUE={LIMIT(GAIN*V(VC+,VC-),INEG,IPOS)}
.ENDS
*


.SUBCKT VCCS_LIMIT_IQ_0  VC+ VC- IOUT+ IOUT-
.PARAM GAIN = 1E-3
G1 IOUT- IOUT+ VALUE={IF( (V(VC+,VC-)<=0),0,GAIN*V(VC+,VC-) )}
.ENDS
*


.SUBCKT CLAMP_AMP_LO_0  VC+ VC- VIN COM VO+ VO-
.PARAM G=1
GVO+ COM VO+ VALUE = {IF(V(VIN,COM)>V(VC+,COM),((V(VIN,COM)-V(VC+,COM))*G),0)}
GVO- COM VO- VALUE = {IF(V(VIN,COM)<V(VC-,COM),((V(VC-,COM)-V(VIN,COM))*G),0)}
.ENDS
*


.SUBCKT CLAMP_AMP_HI_0  VC+ VC- VIN COM VO+ VO-
.PARAM G=10
GVO+ COM VO+ VALUE = {IF(V(VIN,COM)>V(VC+,COM),((V(VIN,COM)-V(VC+,COM))*G),0)}
GVO- COM VO- VALUE = {IF(V(VIN,COM)<V(VC-,COM),((V(VC-,COM)-V(VIN,COM))*G),0)}
.ENDS
*


.SUBCKT VCCS_LIM_GR_0  VC+ VC- IOUT+ IOUT-
.PARAM GAIN = 1
.PARAM IPOS = 0.0276
.PARAM INEG = -0.04416
G1 IOUT+ IOUT- VALUE={LIMIT(GAIN*V(VC+,VC-),INEG,IPOS)}
.ENDS
*


.SUBCKT VCCS_LIM_4_0  VC+ VC- IOUT+ IOUT-
.PARAM GAIN = 1
.PARAM IPOS = 0.3052
.PARAM INEG = -0.4111
G1 IOUT+ IOUT- VALUE={LIMIT(GAIN*V(VC+,VC-),INEG,IPOS)}
.ENDS
*


.SUBCKT VCCS_LIM_CLAW+_0  VC+ VC- IOUT+ IOUT-
G1 IOUT+ IOUT- TABLE {ABS(V(VC+,VC-))} =
+(0, 6.91E-4)
+(3.6, 8.46E-4)
+(5.7, 1.03E-3)
+(7.6, 1.41E-3)
+(9.2, 2.03E-3)
+(11.1, 3.21E-3)
+(12.7, 5E-3)
.ENDS 
*


.SUBCKT VCCS_LIM_CLAW-_0  VC+ VC- IOUT+ IOUT-
G1 IOUT+ IOUT- TABLE {ABS(V(VC+,VC-))} =
+(0, 2.96E-4)
+(3.1, 4.4E-4)
+(7, 5.46E-4)
+(8.6, 7.4E-4)
+(9.8, 1.32E-3)
+(13, 4.97E-3)
.ENDS
*


.SUBCKT VCCS_LIM_3_0  VC+ VC- IOUT+ IOUT-
.PARAM GAIN = 1
.PARAM IPOS = 0.127
.PARAM INEG = -0.1713
G1 IOUT+ IOUT- VALUE={LIMIT(GAIN*V(VC+,VC-),INEG,IPOS)}
.ENDS
*


.SUBCKT OL_SENSE_0  COM SW+ OLN  OLP
GSW+ COM SW+ VALUE = {IF((V(OLN,COM)>10E-3 | V(OLP,COM)>10E-3),1,0)}
.ENDS
*


.SUBCKT VCCS_EXT_LIM_0  VIN+ VIN- IOUT- IOUT+ VP+ VP-
.PARAM GAIN = 1
G1 IOUT+ IOUT- VALUE={LIMIT(GAIN*V(VIN+,VIN-),V(VP-,VIN-), V(VP+,VIN-))}
.ENDS
*


