* OPA2107 OPERATIONAL AMPLIFIER "MACROMODEL" SUBCIRCUIT

* CREATED USING PARTS RELEASE 4.03 ON 10/17/90 AT 10:03

* REV.A

*  ------------------------------------------------------------------------ 

* |  NOTICE: THE INFORMATION PROVIDED HEREIN IS BELIEVED TO BE RELIABLE;   |

* |  HOWEVER; BURR-BROWN ASSUMES NO RESPONSIBILITY FOR INACCURACIES OR     |

* |  OMISSIONS.  BURR-BROWN ASSUMES NO RESPONSIBILITY FOR THE USE OF THIS  |

* |  INFORMATION, AND ALL USE OF SUCH INFORMATION SHALL BE ENTIRELY AT     |

* |  THE USER'S OWN RISK.  NO PATENT RIGHTS OR LICENSES TO ANY OF THE      |

* |  CIRCUITS DESCRIBED HEREIN ARE IMPLIED OR GRANTED TO ANY THIRD PARTY.  |

* |  BURR-BROWN DOES NOT AUTHORIZE OR WARRANT ANY BURR-BROWN PRODUCT FOR   |

* |  USE IN LIFE-SUPPORT DEVICES AND/OR SYSTEMS.                           |

*  ------------------------------------------------------------------------ 

*

* CONNECTIONS:   NON-INVERTING INPUT

*                | INVERTING INPUT

*                | | POSITIVE POWER SUPPLY

*                | | | NEGATIVE POWER SUPPLY

*                | | | | OUTPUT

*                | | | | |

.SUBCKT OPA2107  1 2 3 4 5

*

C1   11 12 7.764E-12

C2    6  7 33.30E-12

DC    5 53 DX

DE   54  5 DX

DLP  90 91 DX

DLN  92 90 DX

DP    4  3 DX

EGND 99  0 POLY(2) (3,0) (4,0) 0 .5 .5

FB    7 99 POLY(5) VB VC VE VLP VLN 0 2.124E6 -2E6 2E6 2E6 -2E6

GA    6  0 11 12 941.5E-6

GCM   0  6 10 99 9.415E-9

ISS   3 10 DC 599.4E-6

HLIM 90  0 VLIM 1K

J1   11  2 10 JX

J2   12  1 10 JX

R2    6  9 100.0E3

RD1   4 11 1.062E3

RD2   4 12 1.062E3

RO1   8  5 50

RO2   7 99 50

RP    3  4 13.33E3

RSS  10 99 333.7E3

VB    9  0 DC 0

VC    3 53 DC 3

VE   54  4 DC 3

VLIM  7  8 DC 0

VLP  91  0 DC 40

VLN   0 92 DC 40

.MODEL DX D(IS=800.0E-18)

.MODEL JX PJF(IS=2.000E-12 BETA=739.5E-6 VTO=-1)

.ENDS


