* OPA360
*****************************************************************************
* (C) Copyright 2011 Texas Instruments Incorporated. All rights reserved.                                            
*****************************************************************************
** This model is designed as an aid for customers of Texas Instruments.
** TI and its licensors and suppliers make no warranties, either expressed
** or implied, with respect to this model, including the warranties of 
** merchantability or fitness for a particular purpose.  The model is
** provided solely on an "as is" basis.  The entire risk as to its quality
** and performance is with the customer.
*****************************************************************************
*
* This model is subject to change without notice. Texas Instruments
* Incorporated is not responsible for updating this model.
*
*****************************************************************************
*
** Released by: Analog eLab Design Center, Texas Instruments Inc.
* Part: OPA360
* Date: 15JUL2011
* Model Type: ALL IN ONE
* Simulator: PSPICE
* Simulator Version: 16.0.0.p001
* EVM Order Number: N/A
* EVM Users Guide: N/A
* Datasheet: SB0S294E - DECEMBER 2003 - REVISED SEPTEMBER 2006
*
* Model Version: 1.0
*
*****************************************************************************
*
* Updates:
*
* Version 1.0 : 
* Release to Web
*
*****************************************************************************  
* BEGIN MODEL OPA360
* BEGIN NOTES
* MODEL TEMP RANGE -40 TO 85 C
* NOTE THAT NOT ALL MODEL PARAMETERS
* TRACK THE DATASHEET VERSUS TEMP
* FOR ACCURATE INPUT BIAS CURRENT TO
* +- 5% USE SPICE OPTION GMIN = 1E-14
* FOR ACCURATE INPUT BIAS CURRENT TO
* +- 20% USE SPICE OPTION GMIN = 1E-13
* END NOTES
* BEGIN FEATURES
* CLOSED LOOP GAIN AND PHASE
* GROUP DELAY
* SAG PIN
* INPUT COMMON MODE VOLTAGE RANGE
* OUTPUT SWING VERSUS OUTPUT CURRENT
* OUTPUT CURRENT FLOWS THROUGH SUPPLY
* PSRR OF VOFFSET
* BIAS CURRENT
* QUIESCENT CURRENT
* SHUTDOWN FUNCTION
* SHUTDOWN / ENABLE DELAYS
* QUIESCENT CURRENT IN SHUTDOWN
* END FEATURES
* PINOUT ORDER IN SAG +V GND OUT EN
* PINOUT ORDER  1  3   6  2   4   5
*****************************************************************************  
.SUBCKT OPA360 1 3 6 2 4 5
Q20 7 8 9 QLN
R3 10 11 1
R4 12 11 1
R10 8 13 1E3
R11 14 15 1E3
R12 16 6 2
R13 2 17 2
R16 18 19 300
R17 20 21 2
R18 9 22 2
D5 23 6 DD
D6 2 23 DD
D7 24 0 DIN
D8 25 0 DIN
I8 0 24 0.1E-3
I9 0 25 0.1E-3
E2 9 0 2 0 1
E3 21 0 6 0 1
D9 26 0 DVN
D10 27 0 DVN
I10 0 26 0.1E-3
I11 0 27 0.1E-3
E4 28 29 26 27 0.025
G2 30 29 24 25 1.2E-6
R22 2 6 100E6
E5 31 0 21 0 1
E6 32 0 9 0 1
E7 33 0 34 0 1
R30 31 35 1E4
R31 32 36 1E5
R32 33 37 1E5
R33 0 35 1
R34 0 36 10
R35 0 37 10
E10 38 39 37 0 0.03
R36 40 34 1E3
R37 34 41 1E3
C6 31 35 1E-12
C7 32 36 1E-12
C8 33 37 2E-12
E11 42 38 36 0 0.3
E12 30 42 35 0 0.67
E14 43 9 21 9 0.5
D11 18 21 DD
D12 9 18 DD
M1 44 45 17 17 NOUT L=3U W=15000U
M2 46 47 16 16 POUT L=3U W=15000U
M3 48 48 20 20 POUT L=3U W=15000U
M4 49 50 10 10 PIN L=3U W=675U
M5 51 52 12 12 PIN L=3U W=675U
M8 53 53 22 22 NOUT L=3U W=15000U
R43 54 47 100
R44 55 45 100
G3 18 43 56 43 0.2E-3
R45 43 18 9E6
C12 19 23 3.3E-12
R46 9 49 2E3
R47 9 51 2E3
C13 49 51 0.1E-12
C14 30 0 0.5E-12
C15 28 0 0.5E-12
C16 23 0 0.5E-12
D13 45 7 DD
D14 57 47 DD
Q15 57 15 21 QLP
V18 30 58 -30E-3
M19 59 60 21 21 PIN L=6U W=500U
E17 41 0 30 0 1
E18 40 0 29 0 1
M23 60 60 21 21 PIN L=6U W=500U
V21 59 11 0.6
R59 23 46 1
R60 44 23 1
J1 61 30 61 JNC
J2 61 28 61 JNC
J3 28 62 28 JNC
J4 30 62 30 JNC
C21 30 63 0.1E-12
E20 64 43 51 49 1
R62 64 56 1E4
C23 56 43 0.1E-12
G7 65 43 18 43 -1E-3
G8 43 66 18 43 1E-3
G9 43 67 53 9 1E-3
G10 68 43 21 48 1E-3
D17 68 65 DD
D18 66 67 DD
R66 65 68 100E6
R67 67 66 100E6
R68 68 21 1E3
R69 9 67 1E3
E23 21 54 21 68 1
E24 55 9 67 9 1
R70 66 43 1E6
R71 67 43 1E6
R72 43 68 1E6
R73 43 65 1E6
G11 6 2 69 0 1.27E-3
R75 42 30 1E9
R76 38 42 1E9
R77 39 38 1E9
R78 29 28 1E9
R79 43 56 1E9
R81 54 21 1E9
R82 9 55 1E9
R83 34 0 1E9
G14 60 9 70 0 425E-6
G15 48 53 70 0 220E-6
E48 71 18 70 0 30
E49 72 43 70 0 -30
V49 73 72 15
V50 74 71 -15
R127 71 0 1E12
R128 72 0 1E12
M41 43 74 18 75 PSW L=1.5U W=150U
M42 18 73 43 76 NSW L=1.5U
R129 75 0 1E12
R130 76 0 1E12
M43 77 5 9 9 NET L=3U W=300U
M44 78 79 9 9 NEN L=3U W=3000U
R131 77 21 1E4
R132 78 80 1E6
V51 80 9 1
M45 81 81 21 21 PEN L=6U W=60U
M46 5 81 21 21 PEN L=6U W=60U
I20 81 9 2E-6
C26 5 0 1E-12
E50 70 0 82 9 1
V52 78 82 1.111E-6
R133 9 82 1E12
C32 21 77 2E-12
C33 80 78 0.25E-12
I21 6 2 2.5E-6
L1 83 4 24E-9
R150 83 4 400
V78 21 61 0.7
V79 62 9 -0.1
M47 84 79 9 9 NEN L=3U W=3000U
R152 84 80 1E6
C34 80 84 0.25E-12
V80 84 85 1.111E-6
R153 9 85 1E12
E53 69 0 85 9 1
R154 0 69 1E12
R155 48 21 1E8
R156 9 53 1E8
R157 17 45 1E8
R158 16 47 1E8
RG1 0 69 1E9
R159 63 28 100
R225 52 28 240
R226 50 58 240
I40 28 0 3.3E-12
I47 30 0 3.3E-12
R304 29 86 325
M50 87 77 9 9 NEN L=3U W=300U
M51 79 87 9 9 NEN L=3U W=300U
R307 87 80 1E4
R308 79 80 1E4
C54 80 87 1.5E-10
C55 80 79 0.75E-12
E95 21 14 6 16 5
E96 13 9 17 2 5
M52 88 89 2 2 NIQ L=3U W=1000U
R309 88 6 722
E97 89 2 70 0 2
R310 2 89 1E9
R312 0 70 1E9
R313 60 21 1E9
R315 1 90 1.1E3
R316 90 39 1.4E3
C56 39 0 14.16E-12
C57 90 4 12E-12
R317 2 29 650
R319 23 83 3.42
C58 1 91 0.15E-15
R320 91 29 50
R321 86 4 845
R322 3 86 528
.MODEL DVN D KF=20E-12 IS=1E-16
.MODEL DD D
.MODEL DIN D
.MODEL QLN NPN
.MODEL QLP PNP
.MODEL JNC NJF IS=1E-18
.MODEL POUT PMOS KP=200U VTO=-0.7
.MODEL NOUT NMOS KP=200U VTO=0.7
.MODEL PIN PMOS KP=200U VTO=-0.7
.MODEL NIN NMOS KP=200U VTO=0.7
.MODEL NIQ NMOS KP=200U VTO=0.7 IS=1E-18
.MODEL NET NMOS KP=200U VTO=1.2 IS=1E-18
.MODEL NEN NMOS KP=200U VTO=0.5 IS=1E-18
.MODEL PEN PMOS KP=200U VTO=-0.7 IS=1E-18
.MODEL PSW PMOS KP=200U VTO=-7.5 IS=1E-18
.MODEL NSW NMOS KP=200U VTO=7.5 IS=1E-18
.ENDS
*END OF MODEL