*$
* OPA37
*****************************************************************************
* (C) Copyright 2022 Texas Instruments Incorporated. All rights reserved.                                            
*****************************************************************************
** This model is designed as an aid for customers of Texas Instruments.
** TI and its licensors and suppliers make no warranties, either expressed
** or implied, with respect to this model, including the warranties of 
** merchantability or fitness for a particular purpose.  The model is
** provided solely on an "as is" basis.  The entire risk as to its quality
** and performance is with the customer
*****************************************************************************
*
* This model is subject to change without notice. Texas Instruments
* Incorporated is not responsible for updating this model.
*
*****************************************************************************
*
** Released by: Online Design Tools, Texas Instruments Inc.
* Part: OPA37
* Date: 26SEP2022
* Model Type: ALL IN ONE
* EVM Order Number: N/A
* EVM Users Guide: N/A
* Datasheet: SBOS135C – JANUARY 1984 - REVISED AUGUST 2005
*
* Model Version: 1.1
*
*****************************************************************************
*
* Updates:
*
* Final 1.1
* 1. Updated PSpice Symbol.
* 2. Added .ENDS name as OPA37.
*
* Final 1.0 
* Release to Web
*
*****************************************************************************   
* CONNECTIONS:   NON-INVERTING INPUT
*                | INVERTING INPUT
*                | | POSITIVE POWER SUPPLY
*                | | | NEGATIVE POWER SUPPLY
*                | | | | OUTPUT
*                | | | | |
.SUBCKT OPA37    1 2 3 4 5
*****************************************************************************
C1   11 12 21.45E-12
C2    6  7 20.00E-12
DC    5 53 DX
DE   54  5 DX
DLP  90 91 DX
DLN  92 90 DX
DP    4  3 DX
EGND 99  0 POLY(2) (3,0) (4,0) 0 .5 .5
FB    7 99 POLY(5) VB VC VE VLP VLN 0 10.64E6 -10E6 10E6 10E6 -10E6
GA    6  0 11 12 4.775E-3
GCM   0  6 10 99 2.685E-9
IEE  10  4 DC 250.0E-6
HLIM 90  0 VLIM 1K
Q1   11  2 13 QX
Q2   12  1 14 QX
R2    6  9 100.0E3
RC1   3 11 209.4
RC2   3 12 209.4
RE1  13 10 2.501
RE2  14 10 2.501
REE  10 99 799.9E3
RO1   8  5 35
RO2   7 99 35
*  RP    3  4 10.91E3
VB    9  0 DC 0
VC    3 53 DC 1.200
VE   54  4 DC 1.200
VLIM  7  8 DC 0
VLP  91  0 DC 25
VLN   0 92 DC 25
****************************
* OPA37 "E" - ENHANCEMENTS
****************************
* OUTPUT SUPPLY MIRROR
FQ3   0 20 POLY(1) VLIM 0  1
DQ1  20 21 DX
DQ2  22 20 DX
VQ1  21  0 0
VQ2  22  0 0
FQ1   3  0 POLY(1) VQ1  1.55E-3  1
FQ2   0  4 POLY(1) VQ2  1.55E-3 -1
* QUIESCIENT CURRENT
RQ    3  4  2.5E4
* DIFF INPUT CAPACITANCE
CDIF  1  2  5.0E-12
* COMMON MODE INPUT CAPACITANCE
C1CM  1  99 2.5E-12
C2CM  2  99 2.5E-12
* INPUT PROTECTION
DIN1   1  2  DX
DIN2   2  1  DX
****************************
.MODEL DX D(IS=800.0E-18)
.MODEL QX NPN(IS=800.0E-18 BF=8.333E3)
.ENDS OPA37
*
