* OPA3692
*****************************************************************************
* (C) Copyright 2011 Texas Instruments Incorporated. All rights reserved.                                            
*****************************************************************************
** This model is designed as an aid for customers of Texas Instruments.
** TI and its licensors and suppliers make no warranties, either expressed
** or implied, with respect to this model, including the warranties of 
** merchantability or fitness for a particular purpose.  The model is
** provided solely on an "as is" basis.  The entire risk as to its quality
** and performance is with the customer.
*****************************************************************************
*
* This model is subject to change without notice. Texas Instruments
* Incorporated is not responsible for updating this model.
*
*****************************************************************************
*
** Released by: Analog eLab Design Center, Texas Instruments Inc.
* Part: OPA3692
* Date: 21JUL2011
* Model Type: ALL IN ONE
* Simulator: PSPICE
* Simulator Version: 16.0.0.p001
* EVM Order Number: N/A
* EVM Users Guide: N/A
* Datasheet: SBOS228E – FEBRUARY 2002 – REVISED DECEMBER 2008
*
* Model Version: 1.0
*
*****************************************************************************
*
* Updates:
*
* Version 1.0 : 
* Release to Web
*
*****************************************************************************
* NOTES:
* This macromodel predicts well: DC, small-signal AC,
* noise, and transient performance under a wide range
* of conditions
*
* This macromodel does not predict well: distortion
* harmonic, intermod, diff. gain & phase, ...),
* temperature effects, board parasitics, differences
* between package styles, and process changes
* CONNECTIONS:
*              Non-Inverting Input
*              | Inverting Input
*              | | Positive Supply
*              | | |  Negative Supply
*              | | |  |  Out
*              | | |  |  |   DisA
*              | | |  |  |   | 
*              | | |  |  |   |  
*              | | |  |  |   |  
.SUBCKT OPA3692 + - V+ V- Out DisA
R_Rn         0 13  1436895674  
R_R1         12 V+  1.0K  
D_D1         2ndpole 25 dx 1
D_D2         26 2ndpole dx 1
C_C7         V+ 0  1P  
C_C4         0 V-  1P  
R_R2         15 V+  600  
R_R3         V- 18  600  
R_Rp2         2ndpole 0  1k  
D_D6         10 H DX 1
C_C8         0 DisA  1P  
R_R11         DisA 10  5.625K  
G_G1         11 0 POLY(1) 10 0 -2.16111040E-04 1.200080053E-04 0 0
D_D23         0 35 DN1 .5
I_I22         35 32 DC 3uA  
I_I24         37 36 DC 2.0uA  
D_D25         0 37 DN3 .25
D_D5         L 10 DX 1
D_D22         32 0 DN1 .5
D_D24         36 0 DN3 .25
V_V1         H 0 2.616
R_R4         19 V+  420  
X_F1    13 14 15 16 OPA3692_F1 
C_Cp2         0 2ndpole  1F  
V_V2         L 0 2.2125
X_F2    14 11 17 18 OPA3692_F2 
G_G10         + 0 POLY(2) 32 0 35 0 1N 1M 1M
Q_Q1         13 13 12 PNP8 1
Q_Q2         16 16 + NPN8 1
Q_Q7         22 22 23 NPN8 1
Q_Q4         21 21 20 PNP8 1
D_D4         Out 30 dx 2.0
D_D3         28 Out dx 2.0
C_C1         0 2  .35p  
Q_Q5         21 16 2 NPN8 1
Q_Q6         22 17 2 PNP8 1
G_G11         2 0 POLY(2) 36 0 37 0 0 1M 1M
R_Rz         0 Zo  256K  
C_Cz         0 Zo  1.551367p  
G_G2         0 2ndpole Zo 0 .001
X_F3    19 20 V+ Zo OPA3692_F3 
R_R6         27 V+  35  
X_F4    23 24 Zo V- OPA3692_F4 
R_R5         V- 24  420  
R_R7         V- 31  35  
E_E3         27 28 POLY(2) 0 2ndpole  V+ V- -725M 1 0.5
E_E4         30 31 POLY(2) 2ndpole 0  V+ V- -725M 1 0.5
C_C6         V- Out  1.8P  
E_E2         26 0 POLY(1) V- V+ .25 .5 0 0
E_E1         25 0 POLY(1) V+ V- -.25 .5 0 0
R_Rf         2 Out  402  
R_Rg         - 2  402  
Q_Q3         17 17 + PNP8 1

*
*MODEL DN3 USED FOR MACRO MODELS
*CREATED BY REA SCHMID 9/23/01
.MODEL DN3 D( IS=.1F AF=1.0 KF=65.0E-17) 
*
*MODEL DN1 IS FOR MACRO MODELS
*CREATED BY REA SCHMID 9/23/01
.model DN1 D( IS=.1F AF=1.0 KF=49.2E-17)
*
* DX D model
* updated using Model Editor release 9.2.1 on 02/26/02 at 11:51
* The Model Editor is a PSpice product.
.MODEL DX D
+ IS=1.0000E-15  
*
*Transistor Models
.MODEL PNP8 PNP
+ IS = 7.999E-18 BF = 1.418E+02 NF = 1.000E+00 VAF= 4.158E+01
+ IKF= 1.085E-01 ISE= 2.233E-15 NE = 1.505E+00 BR = 3.252E+01
+ NR = 1.050E+00 VAR= 1.093E+00 IKR= 5.000E-05 ISC= 6.621E-16
+ NC = 1.150E+00 RB = 6.246E+01 IRB= 0.000E+00 RBM= 2.240E+00
+ RE = 2.537E+00 RC = 1.260E+02 CJE= 9.502E-14 VJE= 7.320E-01
+ MJE= 4.930E-01 TF = 1.303E-11 XTF= 3.500E+01 VTF= 3.259E+00
+ ITF= 2.639E-01 PTF= 0.000E+00 CJC= 1.080E-13 VJC= 7.743E-01
+ MJC= 5.000E-01 XCJC=8.504E-02 TR = 1.500E-10 CJS= 1.290E-13
+ VJS= 9.058E-01 MJS= 4.931E-01 XTB= 1.732E+00 EG = 1.120E+00
+ XTI= 2.000E+00 KF = 3.500E-16 AF = 1.000E+00 FC = 8.500E-01
*
.MODEL NPN8 NPN
+ IS = 7.604E-18 BF = 1.570E+02 NF = 1.000E+00 VAF= 7.871E+01
+ IKF= 3.975E-02 ISE= 3.219E-14 NE = 2.000E+00 BR = 7.614E-01
+ NR = 1.000E+00 VAR= 1.452E+00 IKR= 8.172E-02 ISC= 7.618E-21
+ NC = 1.847E+00 RB = 1.060E+02 IRB= 0.000E+00 RBM= 2.400E+00
+ RE = 2.520E+00 RC = 1.270E+02 CJE= 1.120E-13 VJE= 7.591E-01
+ MJE= 5.406E-01 TF = 1.213E-11 XTF= 2.049E+00 VTF= 1.813E+00
+ ITF= 4.293E-02 PTF= 0.000E+00 CJC= 8.208E-14 VJC= 6.666E-01
+ MJC= 4.509E-01 XCJC=8.450E-02 TR = 4.000E-11 CJS= 1.160E-13
+ VJS= 5.286E-01 MJS= 4.389E-01 XTB= 1.022E+00 EG = 1.120E+00
+ XTI= 1.780E+00 KF = 3.500E-16 AF = 1.000E+00 FC = 8.273E-01
.ENDS  OPA3692
*

.subckt Opa3692_F1 1 2 3 4  
F_F1         3 4 VF_F1 2.6199
VF_F1         1 2 0V
.ends Opa3692_F1
*

.subckt Opa3692_F2 1 2 3 4  
F_F2         3 4 VF_F2 2.55887
VF_F2         1 2 0V
.ends Opa3692_F2
*

.subckt Opa3692_F3 1 2 3 4  
F_F3         3 4 VF_F3 917.2151E-03
VF_F3         1 2 0V
.ends Opa3692_F3
*

.subckt Opa3692_F4 1 2 3 4  
F_F4         3 4 VF_F4 917.2151E-03
VF_F4         1 2 0V
.ends Opa3692_F4
*
