* OPA313 - Rev. B
* Created by Paul Goedeke, Ramon Jimenez; July 31, 2018 - Revised by GPAMPS Team; 2021-07-16
* Created with Green-Williams-Lis Op Amp Macro-model Architecture
* Copyright 2018 by Texas Instruments Corporation
******************************************************
* MACRO-MODEL SIMULATED PARAMETERS:
******************************************************
* OPEN-LOOP GAIN AND PHASE VS. FREQUENCY  WITH RL, CL EFFECTS (Aol)
* UNITY GAIN BANDWIDTH (GBW)
* INPUT COMMON-MODE REJECTION RATIO VS. FREQUENCY (CMRR)
* POWER SUPPLY REJECTION RATIO VS. FREQUENCY (PSRR)
* DIFFERENTIAL INPUT IMPEDANCE (Zid)
* COMMON-MODE INPUT IMPEDANCE (Zic)
* OPEN-LOOP OUTPUT IMPEDANCE VS. FREQUENCY (Zo)
* OUTPUT CURRENT THROUGH THE SUPPLY (Iout)
* INPUT VOLTAGE NOISE DENSITY VS. FREQUENCY (en)
* INPUT CURRENT NOISE DENSITY VS. FREQUENCY (in)
* OUTPUT VOLTAGE SWING vs. OUTPUT CURRENT (Vo)
* SHORT-CIRCUIT OUTPUT CURRENT (Isc)
* QUIESCENT CURRENT (Iq)
* SETTLING TIME VS. CAPACITIVE LOAD (ts)
* SLEW RATE (SR)
* SMALL SIGNAL OVERSHOOT VS. CAPACITIVE LOAD
* LARGE SIGNAL RESPONSE
* OVERLOAD RECOVERY TIME (tor)
* INPUT BIAS CURRENT (Ib)
* INPUT OFFSET CURRENT (Ios)
* INPUT OFFSET VOLTAGE (Vos)
* INPUT COMMON-MODE VOLTAGE RANGE (Vcm)
* INPUT OFFSET VOLTAGE VS. INPUT COMMON-MODE VOLTAGE (Vos vs. Vcm)
* INPUT/OUTPUT ESD CELLS (ESDin, ESDout)
******************************************************
.subckt OPA313 IN+ IN- VCC VEE OUT
******************************************************
* MODEL DEFINITIONS:
.model BB_SW VSWITCH(Ron=50 Roff=1e12 Von=700e-3 Voff=0)
.model ESD_SW VSWITCH(Ron=50 Roff=1e12 Von=250e-3 Voff=0)
.model OL_SW VSWITCH(Ron=1e-3 Roff=1e9 Von=900e-3 Voff=800e-3)
.model OR_SW VSWITCH(Ron=10e-3 Roff=1e9 Von=1e-3 Voff=0)
.model R_NOISELESS RES(T_ABS=-273.15)
******************************************************


I_OS        ESDn MID 1F
I_B         23 MID 200F
V_GRp       54 MID 160
V_GRn       55 MID -160
V_ISCp      48 MID 15
V_ISCn      49 MID -15
V_ORn       37 VCLP -1.8
V11         53 36 0
V_ORp       35 VCLP 1.8
V12         52 34 0
V4          25 OUT 0
VCM_MIN     76 VEE_B -200M
VCM_MAX     77 VCC_B 200M
I_Q         VCC VEE 50U
V_OS        22 23 345.5U
XVOS_VCM    21 22 VCC VEE VOS_SRC_0
R57         24 MID R_NOISELESS 1 
G6          26 MID CL_CLAMP 25  -89.3
C22         27 28 159F  
R65         28 MID R_NOISELESS 10.01 
R64         28 27 R_NOISELESS 10K 
G8          CLAW_CLAMP MID 29 MID  -1M
Xe_n        23 ESDp VNSE_0
S5          VEE ESDp VEE ESDp  S_VSWITCH_1
S4          VEE ESDn VEE ESDn  S_VSWITCH_2
S2          ESDn VCC ESDn VCC  S_VSWITCH_3
S3          ESDp VCC ESDp VCC  S_VSWITCH_4
C29         30 MID 1P  
R78         31 30 R_NOISELESS 100 
C28         32 MID 1P  
R77         33 32 R_NOISELESS 100 
R76         MID 34 R_NOISELESS 1 
G16         34 MID 35 MID  -1
R75         36 MID R_NOISELESS 1 
G14         36 MID 37 MID  -1
XVCCS_LIM_ZO 28 MID MID 24 VCCS_LIM_ZO_0
Xi_nn       ESDn MID FEMT_0
Xi_np       MID 23 FEMT_0
C25         29 MID 35F  
R69         MID 29 R_NOISELESS 1MEG 
G7          29 MID VSENSE MID  -1U
C20         CLAMP MID 1.2U  
R68         MID CLAMP R_NOISELESS 1MEG 
XVCCS_LIM_2 38 MID MID CLAMP VCCS_LIM_2_0
R44         MID 38 R_NOISELESS 1MEG 
XVCCS_LIM_1 39 40 MID 38 VCCS_LIM_1_0
R63         27 MID R_NOISELESS 1 
G10         27 MID 41 MID  -4.77
C16         26 41 5.31U  
R50         41 MID R_NOISELESS 2.65K 
R32         41 26 R_NOISELESS 10K 
Rdummy      MID 25 R_NOISELESS 100K 
Rx          25 24 R_NOISELESS 1MEG 
Rdc1        26 MID R_NOISELESS 1 
R54         MID 42 R_NOISELESS 2.82K 
C15         42 43 13.26P  
R55         43 42 R_NOISELESS 100MEG 
G4          43 MID VEE_B MID  -998M
R56         MID 43 R_NOISELESS 1 
R48         MID 44 R_NOISELESS 2.82K 
C14         44 45 13.26P  
R49         45 44 R_NOISELESS 100MEG 
G22         45 MID VCC_B MID  -998M
R88         MID 45 R_NOISELESS 1 
R81         MID 46 R_NOISELESS 5.64K 
C27         46 47 21.22P  
R82         47 46 R_NOISELESS 100MEG 
G_adjust2   47 MID ESDp MID  -1.03
R89         MID 47 R_NOISELESS 1 
XIQp        VIMON MID MID VCC VCCS_LIMIT_IQ_0
XIQn        MID VIMON VEE MID VCCS_LIMIT_IQ_0
C_DIFF      ESDp ESDn 1P  
XCL_AMP     48 49 VIMON MID 50 51 CLAMP_AMP_LO_0
S8          CLAMP 52 CLAMP 52  S_VSWITCH_5
S9          53 CLAMP 53 CLAMP  S_VSWITCH_6
XGR_AMP     54 55 56 MID 57 58 CLAMP_AMP_HI_0
R39         54 MID R_NOISELESS 1G 
R37         55 MID R_NOISELESS 1G 
R42         VSENSE 56 R_NOISELESS 1M 
C19         56 MID 1F  
R38         57 MID R_NOISELESS 1 
R36         MID 58 R_NOISELESS 1 
R40         57 59 R_NOISELESS 1M 
R41         58 60 R_NOISELESS 1M 
C17         59 MID 1F  
C18         MID 60 1F  
XGR_SRC     59 60 CLAMP MID VCCS_LIM_GR_0
R21         50 MID R_NOISELESS 1 
R20         MID 51 R_NOISELESS 1 
R29         50 61 R_NOISELESS 1M 
R30         51 62 R_NOISELESS 1M 
C9          61 MID 1F  
C8          MID 62 1F  
XCL_SRC     61 62 CL_CLAMP MID VCCS_LIM_4_0
R22         48 MID R_NOISELESS 1T 
R19         MID 49 R_NOISELESS 1T 
XCLAWp      VIMON MID 63 VCC_B VCCS_LIM_CLAW+_0
XCLAWn      MID VIMON VEE_B 64 VCCS_LIM_CLAW-_0
R12         63 VCC_B R_NOISELESS 1K 
R16         63 65 R_NOISELESS 1M 
R13         VEE_B 64 R_NOISELESS 1K 
R17         66 64 R_NOISELESS 1M 
C6          66 MID 1F  
C5          MID 65 1F  
G2          VCC_CLP MID 65 MID  -1M
R15         VCC_CLP MID R_NOISELESS 1K 
G3          VEE_CLP MID 66 MID  -1M
R14         MID VEE_CLP R_NOISELESS 1K 
XCLAW_AMP   VCC_CLP VEE_CLP VOUT_S MID 67 68 CLAMP_AMP_LO_0
R26         VCC_CLP MID R_NOISELESS 1T 
R23         VEE_CLP MID R_NOISELESS 1T 
R25         67 MID R_NOISELESS 1 
R24         MID 68 R_NOISELESS 1 
R27         67 69 R_NOISELESS 1M 
R28         68 70 R_NOISELESS 1M 
C11         69 MID 1F  
C10         MID 70 1F  
XCLAW_SRC   69 70 CLAW_CLAMP MID VCCS_LIM_3_0
H2          33 MID V11 -1
H3          31 MID V12 1
C12         SW_OL MID 1P  
R51         71 SW_OL R_NOISELESS 100 
R31         71 MID R_NOISELESS 1 
XOL_SENSE   MID 71 32 30 OL_SENSE_0
S1          26 41 SW_OL MID  S_VSWITCH_7
H1          72 MID V4 1K
S7          VEE OUT VEE OUT  S_VSWITCH_8
S6          OUT VCC OUT VCC  S_VSWITCH_9
R10         MID 73 R_NOISELESS 1G 
R18         73 VOUT_S R_NOISELESS 100 
C7          VOUT_S MID 1N  
E2          73 MID OUT MID  1
C13         VIMON MID 1N  
R33         72 VIMON R_NOISELESS 100 
R11         MID 72 R_NOISELESS 1G 
R47         74 VCLP R_NOISELESS 100 
C24         VCLP MID 1N  
E4          74 MID CL_CLAMP MID  1
R46         MID CL_CLAMP R_NOISELESS 1K 
G9          CL_CLAMP MID CLAW_CLAMP MID  -1M
R45         MID CLAW_CLAMP R_NOISELESS 1K 
R43         MID VSENSE R_NOISELESS 1K 
G15         VSENSE MID CLAMP MID  -1M
C4          39 MID 1F  
R9          39 75 R_NOISELESS 1M 
R7          MID 76 R_NOISELESS 1T 
R6          77 MID R_NOISELESS 1T 
R8          MID 75 R_NOISELESS 1 
XVCM_CLAMP  78 MID 75 MID 77 76 VCCS_EXT_LIM_0
E1          MID 0 79 0  1
R80         VEE_B 0 R_NOISELESS 1 
R5          80 VEE_B R_NOISELESS 1M 
C3          80 0 1F  
R60         79 80 R_NOISELESS 1MEG 
C1          79 0 100e-9  
R3          79 0 R_NOISELESS 1G 
R59         81 79 R_NOISELESS 1MEG 
C2          81 0 1F  
R4          VCC_B 81 R_NOISELESS 1M 
R79         VCC_B 0 R_NOISELESS 1 
G18         VEE_B 0 VEE 0  -1
G17         VCC_B 0 VCC 0  -1
R67         82 78 R_NOISELESS 1K 
G1          78 82 44 42  -1M
R2          40 ESDn R_NOISELESS 1M 
R1          82 83 R_NOISELESS 1M 
R58         21 83 R_NOISELESS 1K 
G5          83 21 46 MID  -1M
C_CMn       ESDn MID 5P  
C_CMp       MID ESDp 5P  
R53         ESDn MID R_NOISELESS 1T 
R52         MID ESDp R_NOISELESS 1T 
R34         IN- ESDn R_NOISELESS 10M 
R34_2       IN+ ESDp R_NOISELESS 10M 

.MODEL S_VSWITCH_1 VSWITCH (RON=50 ROFF=1T VON=500M VOFF=450M)
.MODEL S_VSWITCH_2 VSWITCH (RON=50 ROFF=1T VON=500M VOFF=450M)
.MODEL S_VSWITCH_3 VSWITCH (RON=50 ROFF=1T VON=500M VOFF=450M)
.MODEL S_VSWITCH_4 VSWITCH (RON=50 ROFF=1T VON=500M VOFF=450M)
.MODEL S_VSWITCH_5 VSWITCH (RON=10M ROFF=1T VON=10M VOFF=0)
.MODEL S_VSWITCH_6 VSWITCH (RON=10M ROFF=1T VON=10M VOFF=0)
.MODEL S_VSWITCH_7 VSWITCH (RON=1M ROFF=1G VON=900M VOFF=800M)
.MODEL S_VSWITCH_8 VSWITCH (RON=50 ROFF=1T VON=500M VOFF=450M)
.MODEL S_VSWITCH_9 VSWITCH (RON=50 ROFF=1T VON=500M VOFF=450M)

.ENDS OPA313
*
.SUBCKT VOS_SRC_0  V+ V- REF+ REF-
E1 V+ 1 TABLE {(V(REF+, V-))} =
+(0, 0.00055)
+(1, 0.00055)
+(1.3, 0)
+(5.5, 0)
E2 1 V- TABLE {(V(V-, REF-))}=
+(-0.7, -2E-4)
+(-0.5, -2E-4)
+(-0.4, 0)
+(5.5, 0)
.ENDS VOS_SRC_0 
*


.SUBCKT VNSE_0  1 2
.PARAM FLW=1
.PARAM NLF=134
.PARAM NVR=25
.PARAM GLF={PWR(FLW,0.25)*NLF/1164}
.PARAM RNV={1.184*PWR(NVR,2)}
.MODEL DVN D KF={PWR(FLW,0.5)/1E11} IS=1.0E-16
I1 0 7 10E-3
I2 0 8 10E-3
D1 7 0 DVN
D2 8 0 DVN
E1 3 6 7 8 {GLF}
R1 3 0 1E9
R2 3 0 1E9
R3 3 6 1E9
E2 6 4 5 0 10
R4 5 0 {RNV}
R5 5 0 {RNV}
R6 3 4 1E9
R7 4 0 1E9
E3 1 2 3 4 1
.ENDS VNSE_0 
*


.SUBCKT VCCS_LIM_ZO_0  VC+ VC- IOUT+ IOUT-
.PARAM GAIN = 1E3
.PARAM IPOS = 30E3
.PARAM INEG = -30E3
G1 IOUT+ IOUT- VALUE={LIMIT(GAIN*V(VC+,VC-),INEG,IPOS)}
.ENDS
*


.SUBCKT FEMT_0  1 2
.PARAM FLWF=1E-3
.PARAM NLFF=5
.PARAM NVRF=5
.PARAM GLFF={PWR(FLWF,0.25)*NLFF/1164}
.PARAM RNVF={1.184*PWR(NVRF,2)}
.MODEL DVNF D KF={PWR(FLWF,0.5)/1E11} IS=1.0E-16
I1 0 7 10E-3
I2 0 8 10E-3
D1 7 0 DVNF
D2 8 0 DVNF
E1 3 6 7 8 {GLFF}
R1 3 0 1E9
R2 3 0 1E9
R3 3 6 1E9
E2 6 4 5 0 10
R4 5 0 {RNVF}
R5 5 0 {RNVF}
R6 3 4 1E9
R7 4 0 1E9
G1 1 2 3 4 1E-6
.ENDS FEMT_0 
*


.SUBCKT VCCS_LIM_2_0  VC+ VC- IOUT+ IOUT-
.PARAM GAIN = 1.125E-1
.PARAM IPOS = 0.683
.PARAM INEG = -0.683
G1 IOUT+ IOUT- VALUE={LIMIT(GAIN*V(VC+,VC-),INEG,IPOS)}
.ENDS
*


.SUBCKT VCCS_LIM_1_0  VC+ VC- IOUT+ IOUT-
.PARAM GAIN = 1E-4
.PARAM IPOS = .5
.PARAM INEG = -.5
G1 IOUT+ IOUT- VALUE={LIMIT(GAIN*V(VC+,VC-),INEG,IPOS)}
.ENDS
*


.SUBCKT VCCS_LIMIT_IQ_0  VC+ VC- IOUT+ IOUT-
.PARAM GAIN = 1E-3
G1 IOUT- IOUT+ VALUE={IF( (V(VC+,VC-)<=0),0,GAIN*V(VC+,VC-) )}
.ENDS
*


.SUBCKT CLAMP_AMP_LO_0  VC+ VC- VIN COM VO+ VO-
.PARAM G=1
GVO+ COM VO+ VALUE = {IF(V(VIN,COM)>V(VC+,COM),((V(VIN,COM)-V(VC+,COM))*G),0)}
GVO- COM VO- VALUE = {IF(V(VIN,COM)<V(VC-,COM),((V(VC-,COM)-V(VIN,COM))*G),0)}
.ENDS
*


.SUBCKT CLAMP_AMP_HI_0  VC+ VC- VIN COM VO+ VO-
.PARAM G=10
GVO+ COM VO+ VALUE = {IF(V(VIN,COM)>V(VC+,COM),((V(VIN,COM)-V(VC+,COM))*G),0)}
GVO- COM VO- VALUE = {IF(V(VIN,COM)<V(VC-,COM),((V(VC-,COM)-V(VIN,COM))*G),0)}
.ENDS
*


.SUBCKT VCCS_LIM_GR_0  VC+ VC- IOUT+ IOUT-
.PARAM GAIN = 1
.PARAM IPOS = 1.3
.PARAM INEG = -1.3
G1 IOUT+ IOUT- VALUE={LIMIT(GAIN*V(VC+,VC-),INEG,IPOS)}
.ENDS
*


.SUBCKT VCCS_LIM_4_0  VC+ VC- IOUT+ IOUT-
.PARAM GAIN = 1
.PARAM IPOS = 0.92
.PARAM INEG = -0.92
G1 IOUT+ IOUT- VALUE={LIMIT(GAIN*V(VC+,VC-),INEG,IPOS)}
.ENDS
*


.SUBCKT VCCS_LIM_CLAW+_0  VC+ VC- IOUT+ IOUT-
G1 IOUT+ IOUT- TABLE {ABS(V(VC+,VC-))} =
+(0, 1E-5)
+(4.78, 2.7E-4)
+(8.3, 5.02E-4)
+(11.3, 8.03E-4)
+(12.2, 9.18E-4)
+(13.5, 1.4E-3)
.ENDS
*


.SUBCKT VCCS_LIM_CLAW-_0  VC+ VC- IOUT+ IOUT-
G1 IOUT+ IOUT- TABLE {ABS(V(VC+,VC-))} =
+(0, 1E-5)
+(3.1, 1.77E-4)
+(6.1, 3.6E-4)
+(9.2, 5.67E-4)
+(11.2, 7.51E-4)
+(12.1, 8.9E-4)
+(12.5, 1.01E-3)
.ENDS
*


.SUBCKT VCCS_LIM_3_0  VC+ VC- IOUT+ IOUT-
.PARAM GAIN = 1
.PARAM IPOS = 0.38
.PARAM INEG = -0.38
G1 IOUT+ IOUT- VALUE={LIMIT(GAIN*V(VC+,VC-),INEG,IPOS)}
.ENDS
*


.SUBCKT OL_SENSE_0  COM SW+ OLN  OLP
GSW+ COM SW+ VALUE = {IF((V(OLN,COM)>10E-3 | V(OLP,COM)>10E-3),1,0)}
.ENDS
*


.SUBCKT VCCS_EXT_LIM_0  VIN+ VIN- IOUT- IOUT+ VP+ VP-
.PARAM GAIN = 1
G1 IOUT+ IOUT- VALUE={LIMIT(GAIN*V(VIN+,VIN-),V(VP-,VIN-), V(VP+,VIN-))}
.ENDS
*


