* OPA3S2859 - Rev. A
* Created by Hasan Babiker; 2021-04-13
* Created with Green-Williams-Lis Current Sense Amp Macro-model Architecture
* Copyright 2021 by Texas Instruments Corporation
******************************************************
* MACRO-MODEL SIMULATED PARAMETERS:
******************************************************
* AC PARAMETERS
**********************
* CLOSED-LOOP OUTPUT IMPEDANCE VS. FREQUENCY (Zout vs. Freq.)
* CLOSED-LOOP GAIN AND PHASE VS. FREQUENCY  WITH RL, CL EFFECTS (Acl vs. Freq.)
* COMMON-MODE REJECTION RATIO VS. FREQUENCY (CMRR vs. Freq.)
* POWER SUPPLY REJECTION RATIO VS. FREQUENCY (PSRR vs. Freq.)
* INPUT VOLTAGE NOISE DENSITY VS. FREQUENCY (en vs. Freq.)
**********************
* DC PARAMETERS
**********************
* INPUT COMMON-MODE VOLTAGE RANGE (Vcm)
* GAIN ERROR (Eg)
* INPUT BIAS CURRENT VS. INPUT COMMON-MODE VOLTAGE (Ib vs. Vcm)
* INPUT OFFSET VOLTAGE VS. TEMPERATURE (Vos vs. Temp)
* OUTPUT VOLTAGE SWING vs. OUTPUT CURRENT (Vout vs. Iout)
* SHORT-CIRCUIT OUTPUT CURRENT (Isc)
* QUIESCENT CURRENT (Iq)
**********************
* TRANSIENT PARAMETERS
**********************
* SLEW RATE (SR)
* SETTLING TIME VS. CAPACITIVE LOAD (ts)
**********************
* TRANSIENT PARAMETERS
**********************
* SWITCH TRANSITION-TIME
******************************************************
.MODEL R_NOISELESS RES (T_ABS=-273.15)
.subckt OPA3S2859 IN+ IN- VCC VEE VOUT SEL0 SEL1 FB_0 FB_1 FB_2 COM
******************************************************
R_R115         Y2 Y2_B R_NOISELESS 1e3
X_U2         SEL0 SEL1 Y0 Y1 Y2 Y3 VCC_B DECODER_OPA3S2859
C_C40         MID Y1_B  7.9577e-12  TC=0,0 
C_C41         MID Y0_B  7.9577e-12  TC=0,0 
R_R116         Y1 Y1_B R_NOISELESS 1e3
X_U3         COM IN- MID VCC_B Y0_B Y1_B Y2_B FB_0 FB_1 FB_2 Switch_Char_OPA3S2859
C_C39         MID Y2_B  7.9577e-12  TC=0,0 
R_R117         Y0 Y0_B R_NOISELESS 1e3
C_C35         N517557 0  1e-15  TC=0,0 
R_R112         N517347 N517557 R_NOISELESS 1e6
I_I_Q         VCC VEE DC 21.50e-3  
C_C33         N517519 0  1e-15  TC=0,0 
R_R111         N517519 N517347 R_NOISELESS 1e6
R_R108         N517347 0 R_NOISELESS 1e12
R_R110         VCC_B N517519 R_NOISELESS 1e-3
R_R113         N517557 VEE_B R_NOISELESS 1e-3
E_E7         VCC_B 0 VCC 0 1
E_E8         VEE_B 0 VEE 0 1
X_S1    COM VCC COM VCC AMP_COMPLETE_S1 
X_S2    VEE COM VEE COM AMP_COMPLETE_S2 
C_C42         0 N517347  1u  TC=0,0 
G_G1         MID 0 N517347 0 -1
R_R122         0 MID R_NOISELESS 1
X_U4         IN+ IN- VCC VEE VOUT OPA3S2859_AMP
R_R124         Y3 Y3_B R_NOISELESS 1e3
C_C43         MID Y3_B  7.9577e-12  TC=0,0 
.ends

.subckt AMP_COMPLETE_S1 1 2 3 4  
S_S1         3 4 1 2 _S1
RS_S1         1 2 1G
.MODEL         _S1 VSWITCH Roff=1e12 Ron=50 Voff=100m Von=700m
.ends AMP_COMPLETE_S1

.subckt AMP_COMPLETE_S2 1 2 3 4  
S_S2         3 4 1 2 _S2
RS_S2         1 2 1G
.MODEL         _S2 VSWITCH Roff=1e12 Ron=50 Voff=100m Von=700m
.ends AMP_COMPLETE_S2

.subckt OPA3S2859_AMP IN+ IN- VCC VEE OUT
.MODEL R_NOISELESS RES (T_ABS=-273.15)
C_C12         MID N1814373  1E-15   
C_C13         N1814571 MID  1E-15   
C_C2         CMRR N1827328  1.296E-15   
C_C3         0 N1842662  3.537E-15   
C_C33         N1818287 0  1E-15   
C_C34         N1818051 0  1u   
C_C35         N1818325 0  1E-15   
C_C36         N1849621 N1849631  5.1E-11   
C_C37         MID CLAMP  3.55E-13   
C_C38         PSRM N1828926  1.773E-14   
C_C39         PSRP N1830326  1.595E-14   
C_C4         0 N1842668  3.537E-15   
C_C40         MID N1832123  5.305E-11   
C_C41         N1842090 N1842080  1.384E-11   
C_C42         N1850862 N1850872  5.1E-11   
C_C7         N1815525 MID  1E-15   
C_C8         MID N1814041  1E-15   
C_C9         MID N1814703  1E-15   
C_C_CMN         MID ESDN  0.62E-12   
C_C_CMP         ESDP MID  0.62E-12   
C_C_DIFF         ESDN ESDP  0.2E-12   
C_C_VIMON         MID VIMON  1E-12   
C_C_VOUT_S         MID VOUT_S  1E-12   
E_E1         N1833109 MID CLAMP MID 1
E_E3         N1816589 MID OUT MID 1
E_E6         MID 0 N1818051 0 1
E_E7         N1849621 MID N1849743 MID 1.429E3
E_E8         N1850862 MID N1850984 MID 1.429E3
G_G1         N1842080 0 CL_CLAMP N1817341 -90.91
G_G12         VSENSE MID N1832123 MID -1E-3
G_G16         CL_CLAMP MID VSENSE MID -1E-3
G_G2         CMRR_2 N1814789 CMRR MID -1E-3
G_G36         VCC_B 0 VCC 0 -1
G_G37         VEE_B 0 VEE 0 -1
G_G6         N1815009 N1815001 PSRP PSRM -1E-3
G_G79         N1815753 MID N1849631 MID 1.47E-10
G_G8         VCC_CLP MID N1814041 MID -1E-3
G_G80         ESDN MID N1850872 MID 1.47E-10
G_G9         VEE_CLP MID N1814703 MID -1E-3
G_GB2         N1842328 0 N1842090 0 -1.696
G_GB3         N1827328 MID ESDP MID -1.823E-1
G_GB4         N1828926 MID VEE_B MID -5.855
G_GB5         N1830326 MID VCC_B MID -7.076E-1
G_GB6         N1842352 0 N1842342 0 -1
I_I_B         N1815753 MID DC 0.5E-12  
I_I_OS         ESDN MID DC 0.4E-12  
I_I_Q         VCC VEE DC 20.5E-3  
L_L3         N1833109 N1832123  5.305E-11  
R_R1         ESDP IN+ R_NOISELESS 10E-3
R_R10         ESDN N1815841 R_NOISELESS 1E-3
R_R107         VCC_B 0 R_NOISELESS 1
R_R108         N1818051 0 R_NOISELESS 1E12
R_R109         VEE_B 0 R_NOISELESS 1
R_R11         N1842352 N1842366  1.813E4 TC=0,0 
R_R110         VCC_B N1818287 R_NOISELESS 1E-3
R_R111         N1818287 N1818051 R_NOISELESS 1E6
R_R112         N1818051 N1818325 R_NOISELESS 1E6
R_R113         N1818325 VEE_B R_NOISELESS 1E-3
R_R12         N1842668 N1842366  10E3 TC=0,0 
R_R13         0 N1842352 R_NOISELESS 1
R_R169         ESDP ESDN R_NOISELESS 1E9
R_R182         MID N1849743  1E12 TC=0,0 
R_R2         ESDN IN- R_NOISELESS 10E-3
R_R21         N1815001 N1815009 R_NOISELESS 1E3
R_R241         MID N1827328 R_NOISELESS 1
R_R242         N1828926 PSRM  1E8 TC=0,0 
R_R243         MID PSRM  1.796E3 TC=0,0 
R_R244         MID N1828926 R_NOISELESS 1
R_R245         N1830326 PSRP  1E8 TC=0,0 
R_R246         MID PSRP  1.995E3 TC=0,0 
R_R247         MID N1830326 R_NOISELESS 1
R_R248         MID N1832123 R_NOISELESS 1.065
R_R249         N1842080 N1842090  10E3 TC=0,0 
R_R25         MID VEE_B R_NOISELESS 1E9
R_R250         N1842328 N1842342  1.813E4 TC=0,0 
R_R251         N1842662 N1842342  10E3 TC=0,0 
R_R252         0 N1842090  1.438E4 TC=0,0 
R_R253         0 N1842080 R_NOISELESS 1
R_R254         0 N1842328 R_NOISELESS 1
R_R256         MID N1850984  1E12 TC=0,0 
R_R26         N1815299 MID R_NOISELESS 1E9
R_R27         MID N1815511 R_NOISELESS 1
R_R28         N1815525 N1815511 R_NOISELESS 1E-3
R_R29         N1814019 VCC_B R_NOISELESS 1E3
R_R3         MID ESDP R_NOISELESS 1E9
R_R30         N1814041 N1814019 R_NOISELESS 1E-3
R_R31         VCC_CLP MID R_NOISELESS 1E3
R_R32         N1814687 VEE_B R_NOISELESS 1E3
R_R33         N1814703 N1814687 R_NOISELESS 1E-3
R_R34         VEE_CLP MID R_NOISELESS 1E3
R_R4         ESDN MID R_NOISELESS 1E9
R_R41         MID N1813753 R_NOISELESS 1E9
R_R42         N1814345 MID R_NOISELESS 1
R_R43         N1814373 N1814345 R_NOISELESS 1E-3
R_R44         N1814571 N1814557 R_NOISELESS 1E-3
R_R45         MID N1814557 R_NOISELESS 1
R_R46         MID N1814957 R_NOISELESS 1E9
R_R5         0 N1842382 R_NOISELESS 1
R_R6         N1827328 CMRR  1E8 TC=0,0 
R_R60         MID AOLNET R_NOISELESS 1E6
R_R62         MID VSENSE R_NOISELESS 1E3
R_R66         MID CL_CLAMP R_NOISELESS 1E3
R_R7         MID CMRR  1.228E3 TC=0,0 
R_R8         N1814789 CMRR_2 R_NOISELESS 1E3
R_R81         MID N1816561 R_NOISELESS 1E9
R_R83         MID N1816589 R_NOISELESS 1E9
R_R9         CMRR_2 N1815001 R_NOISELESS 1E-3
R_RDUMMY         0 N1817341 R_NOISELESS 1.039E2
R_RL3         N1849621 N1849631 R_NOISELESS 100E3
R_RL4         MID N1849631 R_NOISELESS 7.005
R_RL5         N1850862 N1850872 R_NOISELESS 100E3
R_RL6         MID N1850872 R_NOISELESS 7.005
R_RX         N1817341 N1842382 R_NOISELESS 1.039E3
R_R_VIMON         VIMON N1816561 R_NOISELESS 10
R_R_VOUT_S         VOUT_S N1816589 R_NOISELESS 10
V_VCM_MAX         N1815299 VCC_B -1.4
V_V_ISCN         N1814957 MID -105
V_V_ISCP         N1813753 MID 105
X_AOL_1         N1815525 N1815841 MID AOLNET AOL_1_OPA3S2859_AMP 
X_AOL_2         AOLNET MID MID CLAMP AOL_2_OPA3S2859_AMP 
X_CLAWN         MID VIMON VEE_B N1814687 CLAWN_OPA3S2859_AMP 
X_CLAWP         VIMON MID N1814019 VCC_B CLAWP_OPA3S2859_AMP 
X_CL_AMP         N1813753 N1814957 VIMON MID N1814345 N1814557 CLAMP_AMP_LO_OPA3S2859_AMP 
X_CL_SRC         N1814373 N1814571 CL_CLAMP MID CL_SRC_OPA3S2859_AMP 
X_ESD_IN         ESDN ESDP VCC VEE ESD_IN_OPA3S2859_AMP 
X_ESD_OUT         OUT VCC VEE ESD_OUT_OPA3S2859_AMP 
X_E_N         ESDP N1815753 VNSE_OPA3S2859_AMP 
X_H3    OUT N1817341 N1816561 MID OPAMP_H3_OPA3S2859_AMP 
X_IQ_N         MID VIMON MID VEE IQ_SRC_OPA3S2859_AMP 
X_IQ_P         VIMON MID VCC MID IQ_SRC_OPA3S2859_AMP 
X_I_NN         ESDN MID FEMT_OPA3S2859_AMP 
X_I_NP         N1815753 MID FEMT_OPA3S2859_AMP 
X_S1    OUT VCC_CLP CLAMP MID OPAMP_S1_OPA3S2859_AMP 
X_S2    ESDN ESDP ESDN ESDP OPAMP_S2_OPA3S2859_AMP 
X_S3    ESDP ESDN ESDP ESDN OPAMP_S3_OPA3S2859_AMP 
X_S4    VEE_CLP OUT CLAMP MID OPAMP_S4_OPA3S2859_AMP 
X_VCM_CLAMP         N1815009 MID N1815511 MID N1815299 VEE_B VCM_CLAMP_OPA3S2859_AMP 
X_VOS_DRIFT         N1814789 N1815753 VOS_DRIFT_OPA3S2859_AMP 
X_ZO_SRC1         N1842366 0 0 N1842382 ZO_SRC_OPA3S2859_AMP 
.ENDS  OPA3S2859_AMP
*
.SUBCKT AOL_1_OPA3S2859_AMP VC+ VC- IOUT+ IOUT-
.PARAM GAIN = 1E-4
.PARAM IPOS = .5
.PARAM INEG = -.5
G1 IOUT+ IOUT- VALUE={LIMIT(GAIN*V(VC+,VC-),INEG,IPOS)}
.ENDS  AOL_1_OPA3S2859_AMP
*
.SUBCKT AOL_2_OPA3S2859_AMP VC+ VC- IOUT+ IOUT-
.PARAM GAIN = 2.237E-5
.PARAM IPOS = 4.97E-4
.PARAM INEG = -4.118E-4
G1 IOUT+ IOUT- VALUE={LIMIT(GAIN*V(VC+,VC-),INEG,IPOS)}
.ENDS  AOL_2_OPA3S2859_AMP
*
.SUBCKT CLAMP_AMP_LO_OPA3S2859_AMP VC+ VC- VIN COM VO+ VO-
.PARAM G=1
GVO+ COM VO+ VALUE = {IF(V(VIN,COM)>V(VC+,COM),((V(VIN,COM)-V(VC+,COM))*G),0)}
GVO- COM VO- VALUE = {IF(V(VIN,COM)<V(VC-,COM),((V(VC-,COM)-V(VIN,COM))*G),0)}
.ENDS  CLAMP_AMP_LO_OPA3S2859_AMP
*
.SUBCKT CLAWN_OPA3S2859_AMP VC+ VC- IOUT+ IOUT-
G1 IOUT+ IOUT- TABLE {(V(VC+,VC-))} =
+(0, 1.038E-03)
+(40, 1.372E-03)
+(60, 1.516E-03)
+(80, 1.664E-03)
+(90, 1.749E-03)
+(98, 1.844E-03)
+(100, 1.886E-03)
+(102, 1.958E-03)
+(104, 2.357E-03)
.ENDS  CLAWN_OPA3S2859_AMP
*
.SUBCKT CLAWP_OPA3S2859_AMP VC+ VC- IOUT+ IOUT-
G1 IOUT+ IOUT- TABLE {(V(VC+,VC-))} =
+(0, 8.277E-04)
+(20, 1.044E-03)
+(60, 1.413E-03)
+(70, 1.523E-03)
+(80, 1.657E-03)
+(86, 1.778E-03)
+(90, 1.921E-03)
+(96, 2.218E-03)
+(100, 2.453E-03)
.ENDS  CLAWP_OPA3S2859_AMP
*
.SUBCKT CL_SRC_OPA3S2859_AMP VC+ VC- IOUT+ IOUT-
.PARAM GAIN = 1
.PARAM IPOS = 0.1
.PARAM INEG = -0.1
G1 IOUT+ IOUT- VALUE={LIMIT(GAIN*V(VC+,VC-),INEG,IPOS)}
.ENDS  CL_SRC_OPA3S2859_AMP
*
.SUBCKT ESD_IN_OPA3S2859_AMP ESDN ESDP VCC VEE
.MODEL ESD_SW VSWITCH(RON=50 ROFF=1E12 VON=500E-3 VOFF=450E-3)
S1 VCC ESDN ESDN VCC ESD_SW
S2 VCC ESDP ESDP VCC ESD_SW
S3 ESDN VEE VEE ESDN ESD_SW
S4 ESDP VEE VEE ESDP ESD_SW
.ENDS  ESD_IN_OPA3S2859_AMP
*
.SUBCKT ESD_OUT_OPA3S2859_AMP OUT VCC VEE
.MODEL ESD_SW VSWITCH(RON=50 ROFF=1E12 VON=500E-3 VOFF=450E-3)
S1 VCC OUT OUT VCC ESD_SW
S2 OUT VEE VEE OUT ESD_SW
.ENDS  ESD_OUT_OPA3S2859_AMP
*
.SUBCKT FEMT_OPA3S2859_AMP  1 2 PARAMS: NLFF = 0.3 FLWF = 1E-3 NVRF = 0.3
.PARAM GLFF={PWR(FLWF,0.25)*NLFF/1164}
.PARAM RNVF={1.184*PWR(NVRF,2)}
.MODEL DVNF D KF={PWR(FLWF,0.5)/1E11} IS=1.0E-16
I1 0 7 10E-3
I2 0 8 10E-3
D1 7 0 DVNF
D2 8 0 DVNF
E1 3 6 7 8 {GLFF}
R1 3 0 1E9
R2 3 0 1E9
R3 3 6 1E9
E2 6 4 5 0 10
R4 5 0 {RNVF}
R5 5 0 {RNVF}
R6 3 4 1E9
R7 4 0 1E9
G1 1 2 3 4 1E-6
C1 1 0 1E-15
C2 2 0 1E-15
C3 1 2 1E-15
.ENDS  FEMT_OPA3S2859_AMP
*
.SUBCKT IQ_SRC_OPA3S2859_AMP VC+ VC- IOUT+ IOUT-
.PARAM GAIN = 1E-3
G1 IOUT+ IOUT- VALUE={IF( (V(VC+,VC-)<=0),0,GAIN*V(VC+,VC-) )}
.ENDS  IQ_SRC_OPA3S2859_AMP
*
.SUBCKT OPAMP_H3_OPA3S2859_AMP 1 2 3 4  
H_H3         3 4 VH_H3 -1E3
VH_H3         1 2 0V
.ENDS  OPAMP_H3_OPA3S2859_AMP
*
.SUBCKT OPAMP_S1_OPA3S2859_AMP 1 2 3 4  
S_S1         3 4 1 2 _S1
RS_S1         1 2 1G
.MODEL         _S1 VSWITCH ROFF=2E6 RON=1E-3 VOFF=-1 VON=1.88
.ENDS  OPAMP_S1_OPA3S2859_AMP
*
.SUBCKT OPAMP_S2_OPA3S2859_AMP 1 2 3 4  
S_S2         3 4 1 2 _S2
RS_S2         1 2 1G
.MODEL         _S2 VSWITCH ROFF=1E12 RON=50 VOFF=0.9 VON=1
.ENDS  OPAMP_S2_OPA3S2859_AMP
*
.SUBCKT OPAMP_S3_OPA3S2859_AMP 1 2 3 4  
S_S3         3 4 1 2 _S3
RS_S3         1 2 1G
.MODEL         _S3 VSWITCH ROFF=1E12 RON=50 VOFF=0.9 VON=1
.ENDS  OPAMP_S3_OPA3S2859_AMP
*
.SUBCKT OPAMP_S4_OPA3S2859_AMP 1 2 3 4  
S_S4         3 4 1 2 _S4
RS_S4         1 2 1G
.MODEL         _S4 VSWITCH ROFF=2E6 RON=1E-3 VOFF=-1 VON=1.9
.ENDS  OPAMP_S4_OPA3S2859_AMP
*
.SUBCKT VCM_CLAMP_OPA3S2859_AMP VIN+ VIN- IOUT- IOUT+ VP+ VP-
.PARAM GAIN = 1
G1 IOUT+ IOUT- VALUE={LIMIT(GAIN*V(VIN+,VIN-),V(VP-,VIN-), V(VP+,VIN-))}
.ENDS  VCM_CLAMP_OPA3S2859_AMP
*
.SUBCKT VNSE_OPA3S2859_AMP  1 2 PARAMS: NLF = 1.209E3  FLW = 1  NVR = 3.061
.PARAM GLF={PWR(FLW,0.25)*NLF/1164}
.PARAM RNV={1.184*PWR(NVR,2)}
.MODEL DVN D KF={PWR(FLW,0.5)/1E11} IS=1.0E-16
I1 0 7 10E-3
I2 0 8 10E-3
D1 7 0 DVN
D2 8 0 DVN
E1 3 6 7 8 {GLF}
R1 3 0 1E9
R2 3 0 1E9
R3 3 6 1E9
E2 6 4 5 0 10
R4 5 0 {RNV}
R5 5 0 {RNV}
R6 3 4 1E9
R7 4 0 1E9
E3 1 2 3 4 1
C1 1 0 1E-15
C2 2 0 1E-15
C3 1 2 1E-15
.ENDS  VNSE_OPA3S2859_AMP
*
.SUBCKT VOS_DRIFT_OPA3S2859_AMP VOS+ VOS-
.PARAM DC = 0.6023E-3
.PARAM POL = 1
.PARAM DRIFT = -2E-6
E1 VOS+ VOS- VALUE={DC+POL*DRIFT*(TEMP-27)}
.ENDS  VOS_DRIFT_OPA3S2859_AMP
*
.SUBCKT ZO_SRC_OPA3S2859_AMP VC+ VC- IOUT+ IOUT-
.PARAM GAIN = 1
.PARAM IPOS = 150
.PARAM INEG = -150
G1 IOUT+ IOUT- VALUE={LIMIT(GAIN*V(VC+,VC-),INEG,IPOS)}
.ENDS  ZO_SRC_OPA3S2859_AMP
*
*$
.SUBCKT Switch_Char_OPA3S2859 COM IN- MID VCC Y0 Y1 Y2 FB0 FB1 FB2
X_S9    Y1 BIT1 N1525471 FB0 Switch_Char_OPA3S2859_S9 
X_S14    Y2 BIT1 IN- N1526089 Switch_Char_OPA3S2859_S14 
C_C12         MID N1526089  0.4e-12  TC=0,0 
C_C11         MID N1525777  0.4e-12  TC=0,0 
C_C9         MID FB2  1.1e-12  TC=0,0 
C_C8         MID FB1  1.2e-12  TC=0,0 
G_G1         BIT1 0 VCC 0 -1
R_R114         0 BIT1 R_NOISELESS 1
C_C5         MID COM  1.2e-12  TC=0,0 
X_S7    Y0 BIT1 FB1 COM Switch_Char_OPA3S2859_S7 
X_S6    Y1 BIT1 FB0 COM Switch_Char_OPA3S2859_S6 
X_S10    Y0 BIT1 N1525777 FB1 Switch_Char_OPA3S2859_S10 
X_S8    Y2 BIT1 FB2 COM Switch_Char_OPA3S2859_S8 
X_S11    Y2 BIT1 N1526089 FB2 Switch_Char_OPA3S2859_S11 
X_S13    Y0 BIT1 IN- N1525777 Switch_Char_OPA3S2859_S13 
X_S12    Y1 BIT1 IN- N1525471 Switch_Char_OPA3S2859_S12 
V_V12         BIT1 BIT0 2.5Vdc
C_C10         MID N1525471  0.5e-12  TC=0,0 
C_C7         MID FB0  1.4e-12  TC=0,0 
X_S15    Y1 BIT1 N1527800 COM Switch_Char_OPA3S2859_S15 
C_C13         N1527800 MID  0.1e-12  TC=0,0 
.ends

.subckt Switch_Char_OPA3S2859_S9 1 2 3 4  
S_S9         3 4 1 2 _S9
RS_S9         1 2 1G
.MODEL         _S9 VSWITCH Roff=1e9 Ron=1e-3 VH=0 VT=-1.25 TD=91n
.ends Switch_Char_OPA3S2859_S9

.subckt Switch_Char_OPA3S2859_S14 1 2 3 4  
S_S14         3 4 1 2 _S14
RS_S14         1 2 1G
.MODEL         _S14 VSWITCH Roff=1e9 Ron=36 VH=0 VT=-1.25 TD=224n
.ends Switch_Char_OPA3S2859_S14

.subckt Switch_Char_OPA3S2859_S7 1 2 3 4  
S_S7         3 4 1 2 _S7
RS_S7         1 2 1G
.MODEL         _S7 VSWITCH Roff=1e9 Ron=117 VH=0 VT=-1.25 TD=149n
.ends Switch_Char_OPA3S2859_S7

.subckt Switch_Char_OPA3S2859_S6 1 2 3 4  
S_S6         3 4 1 2 _S6
RS_S6         1 2 1G
.MODEL         _S6 VSWITCH Roff=1e9 Ron=62 VH=0 VT=-1.25 TD=91n
.ends Switch_Char_OPA3S2859_S6

.subckt Switch_Char_OPA3S2859_S10 1 2 3 4  
S_S10         3 4 1 2 _S10
RS_S10         1 2 1G
.MODEL         _S10 VSWITCH Roff=1e9 Ron=1e-3 VH=0 VT=-1.25 TD=149n
.ends Switch_Char_OPA3S2859_S10

.subckt Switch_Char_OPA3S2859_S8 1 2 3 4  
S_S8         3 4 1 2 _S8
RS_S8         1 2 1G
.MODEL         _S8 VSWITCH Roff=1e9 Ron=342 VH=0 VT=-1.25 TD=224n
.ends Switch_Char_OPA3S2859_S8

.subckt Switch_Char_OPA3S2859_S11 1 2 3 4  
S_S11         3 4 1 2 _S11
RS_S11         1 2 1G
.MODEL         _S11 VSWITCH Roff=1e9 Ron=1e-3 VH=0 VT=-1.25 TD=224n
.ends Switch_Char_OPA3S2859_S11

.subckt Switch_Char_OPA3S2859_S13 1 2 3 4  
S_S13         3 4 1 2 _S13
RS_S13         1 2 1G
.MODEL         _S13 VSWITCH Roff=1e9 Ron=38 VH=0 VT=-1.25 TD=149n
.ends Switch_Char_OPA3S2859_S13

.subckt Switch_Char_OPA3S2859_S12 1 2 3 4  
S_S12         3 4 1 2 _S12
RS_S12         1 2 1G
.MODEL         _S12 VSWITCH Roff=1e9 Ron=38 VH=0 VT=-1.25 TD=91n
.ends Switch_Char_OPA3S2859_S12

.subckt Switch_Char_OPA3S2859_S15 1 2 3 4  
S_S15         3 4 1 2 _S15
RS_S15         1 2 1G
.MODEL         _S15 VSWITCH Roff=1e9 Ron=62 VH=0 VT=-1.25 TD=91n
.ends Switch_Char_OPA3S2859_S15
*$
.subckt DECODER_OPA3S2859 A0 A1 Y0 Y1 Y2 Y3 VCC
V_V12         BIT1 BIT0 2.5Vdc
X_U11         N1507821 N1507411 Y1 BIT0 BIT1 ANDG_OPA3S2859
X_U6         A0 N1507411 BIT0 BIT1 BUFFER_OPA3S2859
X_U5         A1 N1507385 BIT0 BIT1 BUFFER_OPA3S2859
X_U12         N1507821 N1507641 Y0 BIT0 BIT1 ANDG_OPA3S2859
X_U10         N1507385 N1507641 Y2 BIT0 BIT1 ANDG_OPA3S2859
X_U9         N1507385 N1507411 Y3 BIT0 BIT1 ANDG_OPA3S2859
X_U13         A0 N1507641 BIT0 BIT1 INVERTER_OPA3S2859
X_U7         A1 N1507821 BIT0 BIT1 INVERTER_OPA3S2859
G_G1         BIT1 0 VCC 0 -1
R_R114         0 BIT1 R_NOISELESS 1
.ends
*$
.subckt ANDG_OPA3S2859 IN1 IN2 OUT BIT0 BIT1
X_S5    BIT1 IN2 OUT BIT0 ANDG_OPA3S2859_S5 
X_S4    BIT1 IN1 OUT BIT0 ANDG_OPA3S2859_S4 
X_S6    IN1 BIT1 N1513765 BIT1 ANDG_OPA3S2859_S6 
X_S3    IN2 BIT1 OUT N1513765 ANDG_OPA3S2859_S3 
.ends
*$
.subckt ANDG_OPA3S2859_S5 1 2 3 4  
S_S5         3 4 1 2 _S5
RS_S5         1 2 1G
.MODEL         _S5 VSWITCH Roff=1Meg Ron=1 VH=0.05 VT=1.25 TD=0
.ends ANDG_OPA3S2859_S5
*$
.subckt ANDG_OPA3S2859_S4 1 2 3 4  
S_S4         3 4 1 2 _S4
RS_S4         1 2 1G
.MODEL         _S4 VSWITCH Roff=1Meg Ron=1 VH=0.05 VT=1.25 TD=0
.ends ANDG_OPA3S2859_S4
*$
.subckt ANDG_OPA3S2859_S6 1 2 3 4  
S_S6         3 4 1 2 _S6
RS_S6         1 2 1G
.MODEL         _S6 VSWITCH Roff=1Meg Ron=1 VH=0.05 VT=-1.25 TD=0
.ends ANDG_OPA3S2859_S6
*$
.subckt ANDG_OPA3S2859_S3 1 2 3 4  
S_S3         3 4 1 2 _S3
RS_S3         1 2 1G
.MODEL         _S3 VSWITCH Roff=1Meg Ron=1 VH=0.05 VT=-1.25 TD=0
.ends ANDG_OPA3S2859_S3
*$
.subckt INVERTER_OPA3S2859 IN OUT BIT0 BIT1
X_S4    BIT1 IN OUT BIT1 INVERTER_OPA3S2859_S4 
X_S3    IN BIT1 OUT BIT0 INVERTER_OPA3S2859_S3 
.ends
*$
.subckt INVERTER_OPA3S2859_S4 1 2 3 4  
S_S4         3 4 1 2 _S4
RS_S4         1 2 1G
.MODEL         _S4 VSWITCH Roff=1Meg Ron=1 VH=0.05 VT=1.25 TD=0
.ends INVERTER_OPA3S2859_S4
*$
.subckt INVERTER_OPA3S2859_S3 1 2 3 4  
S_S3         3 4 1 2 _S3
RS_S3         1 2 1G
.MODEL         _S3 VSWITCH Roff=1Meg Ron=1 VH=0.05 VT=-1.25 TD=0
.ends INVERTER_OPA3S2859_S3
*$
.subckt BUFFER_OPA3S2859 IN OUT BIT0 BIT1
X_S3    IN BIT1 OUT BIT1 BUFFER_OPA3S2859_S3 
X_S4    BIT1 IN OUT BIT0 BUFFER_OPA3S2859_S4 
.ends
*$
.subckt BUFFER_OPA3S2859_S3 1 2 3 4  
S_S3         3 4 1 2 _S3
RS_S3         1 2 1G
.MODEL         _S3 VSWITCH Roff=1Meg Ron=1 VH=0.05 VT=-1.25 TD=0
.ends BUFFER_OPA3S2859_S3
*$
.subckt BUFFER_OPA3S2859_S4 1 2 3 4  
S_S4         3 4 1 2 _S4
RS_S4         1 2 1G
.MODEL         _S4 VSWITCH Roff=1Meg Ron=1 VH=0.05 VT=1.25 TD=0
.ends BUFFER_OPA3S2859_S4
*$
.subckt ANDG_OPA3S2859_S8 1 2 3 4  
S_S8         3 4 1 2 _S8
RS_S8         1 2 1G
.MODEL         _S8 VSWITCH Roff=1e9 Ron=1e-3 Voff=-1 Von=-0.1
.ends ANDG_OPA3S2859_S8
*$
.subckt ANDG_OPA3S2859_S7 1 2 3 4  
S_S7         3 4 1 2 _S7
RS_S7         1 2 1G
.MODEL         _S7 VSWITCH Roff=1e9 Ron=1e-3 Voff=-1 Von=-0.1
.ends ANDG_OPA3S2859_S7
.END
*$