* OPA358
*****************************************************************************
* (C) Copyright 2011 Texas Instruments Incorporated. All rights reserved.                                            
*****************************************************************************
** This model is designed as an aid for customers of Texas Instruments.
** TI and its licensors and suppliers make no warranties, either expressed
** or implied, with respect to this model, including the warranties of 
** merchantability or fitness for a particular purpose.  The model is
** provided solely on an "as is" basis.  The entire risk as to its quality
** and performance is with the customer.
*****************************************************************************
*
* This model is subject to change without notice. Texas Instruments
* Incorporated is not responsible for updating this model.
*
*****************************************************************************
*
** Released by: Analog eLab Design Center, Texas Instruments Inc.
* Part: OPA358
* Date: 01JUL2011
* Model Type: ALL IN ONE
* Simulator: PSPICE
* Simulator Version: 16.0.0.p001
* EVM Order Number: N/A
* EVM Users Guide: N/A
* Datasheet: SB0S296C - MARCH 2004 - REVISED FEBRUARY 2005
*
* Model Version: 1.0
*
*****************************************************************************
*
* Updates:
*
* Version 1.0 : 
* Release to Web
*
*****************************************************************************
* BEGIN NOTES
* MODEL TEMPERATURE RANGE IS
* -40 C TO +85 C, NOT ALL
* PARAMETERS TRACK THOSE OF
* THE REAL PART VS TEMPERATURE
* END NOTES
*
* BEGIN FEATURES
* OPEN LOOP GAIN AND PHASE
* CLOSED LOOP GAIN FLATNESS
* INPUT VOLTAGE NOISE
* INPUT CURRENT NOISE
* INPUT BIAS CURRENT
* INPUT BIAS I VS TEMPERATURE
* INPUT CAPACITANCE
* INPUT COMMON MODE VOLTAGE RANGE
* INPUT CLAMPS TO RAILS
* CMRR WITH FREQUENCY EFFECTS
* PSRR WITH FREQUENCY EFFECTS
* SLEW RATE
* SETTLING TIME TO 0.1%
* SHUTDOWN
* INTERNAL PULLUP ON ENABLE PIN
* QUIESCENT CURRENT
* QUIESCENT CURRENT VS SHUTDOWN
* RAIL TO RAIL OUTPUT STAGE
* HIGH CLOAD EFFECTS
* CLASS AB BIAS IN OUTPUT STAGE
* OUTPUT IMPEDANCE
* OUTPUT CURRENT THROUGH SUPPLIES
* OUTPUT CURRENT LIMITING
* OUTPUT CLAMPS TO RAILS
* OUTPUT SWING VS OUTPUT CURRENT
* END FEATURES
*
* BEGIN MODEL OPA358
* PINOUT ORDER +IN -IN +V GND OUT EN
* PINOUT ORDER  1   3   6  2   4   5
*****************************************************************************
.SUBCKT OPA358 1 3 6 2 4 5
Q20 7 8 9 QLN
R3 10 11 1
R4 12 11 1
R10 8 13 1E3
R11 14 15 1E3
R12 16 6 4
R13 2 17 1
R16 18 19 200
R17 20 21 4
R18 9 22 1
D5 23 6 DD
D6 2 23 DD
D7 24 0 DIN
D8 25 0 DIN
I8 0 24 0.1E-3
I9 0 25 0.1E-3
E2 9 0 2 0 1
E3 21 0 6 0 1
D9 26 0 DVN
D10 27 0 DVN
I10 0 26 0.1E-3
I11 0 27 0.1E-3
E4 28 3 26 27 0.06
G2 29 3 24 25 2.4E-5
R22 2 6 100E6
E5 30 0 21 0 1
E6 31 0 9 0 1
E7 32 0 33 0 1
R30 30 34 1E5
R31 31 35 1E5
R32 32 36 1E5
R33 0 34 10
R34 0 35 10
R35 0 36 10
E10 37 1 36 0 0.47
R36 38 33 1E3
R37 33 39 1E3
C6 30 34 10E-12
C7 31 35 10E-12
C8 32 36 10E-12
E11 40 37 35 0 1
E12 29 40 34 0 1
E14 41 9 21 9 0.5
D11 18 21 DD
D12 9 18 DD
M1 42 43 17 17 NOUT L=3U W=4000U
M2 44 45 16 16 POUT L=3U W=1800U
M3 46 46 20 20 POUT L=3U W=1800U
M4 47 48 10 10 PIN L=3U W=525U
M5 49 50 12 12 PIN L=3U W=525U
M8 51 51 22 22 NOUT L=3U W=4000U
R43 52 45 100
R44 53 43 100
G3 18 54 55 54 0.2E-3
R45 54 18 4.5E6
C12 19 23 2.7E-12
R46 9 47 2E3
R47 9 49 2E3
C13 47 49 0.1E-12
C14 29 0 1.5E-12
C15 28 0 1.5E-12
C16 23 0 0.5E-12
D13 43 7 DD
D14 56 45 DD
Q15 56 15 21 QLP
V18 29 57 370E-6
M19 58 59 21 21 PIN L=6U W=500U
E17 39 0 29 0 1
E18 38 0 3 0 1
M23 59 59 21 21 PIN L=6U W=500U
V21 58 11 0.25
R59 23 44 1
R60 42 23 0.5
J1 60 29 60 JNC
J2 60 28 60 JNC
J3 28 61 28 JNC
J4 29 61 29 JNC
C21 29 62 1.5E-12
E20 63 54 49 47 1
R62 63 55 1E4
C23 55 54 0.1E-12
G7 64 54 18 54 -1E-3
G8 54 65 18 54 1E-3
G9 54 66 51 9 1E-3
G10 67 54 21 46 1E-3
D17 67 64 DD
D18 65 66 DD
R66 64 67 100E6
R67 66 65 100E6
R68 67 21 1E3
R69 9 66 1E3
E23 21 52 21 67 1
E24 53 9 66 9 1
R70 65 54 1E6
R71 66 54 1E6
R72 54 67 1E6
R73 54 64 1E6
G11 6 2 68 0 2.12E-3
R75 40 29 1E9
R76 37 40 1E9
R77 1 37 1E9
R78 3 28 1E9
R79 54 55 1E9
R81 52 21 1E9
R82 9 53 1E9
R83 33 0 1E9
G14 59 9 69 0 425E-6
G15 46 51 69 0 3E-3
E48 70 18 69 0 30
E49 71 54 69 0 -30
V49 72 71 15
V50 73 70 -15
R127 70 0 1E12
R128 71 0 1E12
M41 54 73 18 74 PSW L=1.5U W=150U
M42 18 72 54 75 NSW L=1.5U
R129 74 0 1E12
R130 75 0 1E12
M43 76 5 9 9 NET L=3U W=300U
M44 77 78 9 9 NEN L=3U W=3000U
R131 76 21 1E4
R132 77 79 1E6
V51 79 9 1
M45 80 80 21 21 PEN L=6U W=60U
M46 5 80 21 21 PEN L=6U W=60U
I20 80 9 2E-6
C26 5 0 1E-12
E50 69 0 81 9 1
V52 77 81 1.111E-6
R133 9 81 1E12
C32 21 76 2E-12
C33 79 77 1E-18
I21 6 2 4.5E-6
L1 82 4 3E-9
R150 82 4 400
V78 21 60 0
V79 61 9 0.45
M47 83 78 9 9 NEN L=3U W=3000U
R152 83 79 1E6
C34 79 83 1E-18
V80 83 84 1.111E-6
R153 9 84 1E12
E53 68 0 84 9 1
R154 0 68 1E12
R155 46 21 1E8
R156 9 51 1E8
R157 17 43 1E8
R158 16 45 1E8
RG1 0 68 1E9
R159 62 28 100
R225 50 28 900
R226 48 57 900
M50 85 76 9 9 NEN L=3U W=300U
M51 78 85 9 9 NEN L=3U W=300U
R307 85 79 1E4
R308 78 79 1E4
C54 79 85 1.7E-10
C55 79 78 4.4E-12
E95 21 14 6 16 1.5
E96 13 9 17 2 6
M52 86 87 2 2 NIQ L=3U W=1000U
R309 86 6 70E3
E97 87 2 69 0 2
R310 2 87 1E9
R312 0 69 1E9
R313 59 21 1E9
R319 23 82 0.12
R323 41 88 1E3
C56 88 0 10E-9
E99 54 0 88 0 1
R324 0 41 1E8
R325 0 54 1E8
G36 28 0 89 0 0.14E-12
I42 28 0 0.03E-12
I47 0 90 1E-3
D45 90 0 DD
V113 90 91 0.7
R326 0 91 1E6
E100 92 0 91 0 -571
R327 0 92 1E6
R328 93 92 1E6
D46 94 93 DD
V114 94 95 27
V115 93 89 26.4
I48 0 96 1E-3
D47 96 0 DD
V116 96 97 0.7
R329 0 97 1E6
E101 95 0 97 0 1
G37 29 0 89 0 0.14E-12
I49 29 0 0.03E-12
R330 0 89 1E9
R331 0 89 1E9
.MODEL DVN D KF=20E-12 IS=1E-16
.MODEL DD D
.MODEL DIN D
.MODEL QLN NPN
.MODEL QLP PNP
.MODEL JNC NJF IS=1E-18
.MODEL POUT PMOS KP=200U VTO=-0.7
.MODEL NOUT NMOS KP=200U VTO=0.7
.MODEL PIN PMOS KP=200U VTO=-0.7
.MODEL NIN NMOS KP=200U VTO=0.7
.MODEL NIQ NMOS KP=200U VTO=0.7 IS=1E-18
.MODEL NET NMOS KP=200U VTO=1.2 IS=1E-18
.MODEL NEN NMOS KP=200U VTO=0.5 IS=1E-18
.MODEL PEN PMOS KP=200U VTO=-0.7 IS=1E-18
.MODEL PSW PMOS KP=200U VTO=-7.5 IS=1E-18
.MODEL NSW NMOS KP=200U VTO=7.5 IS=1E-18
.ENDS
* END MODEL OPA358
