* OPA830, 3V operation
*****************************************************************************
* (C) Copyright 2012 Texas Instruments Incorporated. All rights reserved.                                            
*****************************************************************************
** This model is designed as an aid for customers of Texas Instruments.
** TI and its licensors and suppliers make no warranties, either expressed
** or implied, with respect to this model, including the warranties of 
** merchantability or fitness for a particular purpose.  The model is
** provided solely on an "as is" basis.  The entire risk as to its quality
** and performance is with the customer.
*****************************************************************************
*
** Released by: WEBENCH(R) Design Center, Texas Instruments Inc.
* Part: OPA830 at 3V operation
* Date: 09/27/2012
* Model Type: All In One
* Simulator: Pspice
* Simulator Version: Pspice 16.2.0.p001
* EVM Order Number: N/A 
* EVM Users Guide: N/A
* Datasheet: SBOS263F - August 2004 - Revised August 2008
*
* Model Version: 1.0
*
*****************************************************************************
*
* Updates:
*
* Version 1.0 : Release to Web
*
*****************************************************************************
* Notes: 
* 1. The model reflects the following parameters published in the device 
*    data sheet for 3V operation: 
*    GBWP, Small-Signal Bandwidth, Slew Rate, Input-referred Voltage Noise, 
*    Input-Referred Current Noise, Open-Loop Gain, Offset Voltage, 
*    Bias Current,Offset Current, Input Voltage Range, Input Impedance, 
*    CMRR, PSRR,Max/Min Output Swing, Short-circuit Output Current, 
*    Quiescent Current.
* 2. This model does not meet published parameters for distortion, Rise Time, 
*   Fall Time, Parameter Drift Over Temperature, 
*****************************************************************************
*$
.SUBCKT OPA830_3V VOUT IN+ IN- VCC VEE
Vz            VEE VEEint 0.0V
X_U25         N5957189 GND_FLOAT N5956357 N5960991 VCVS_LIMIT PARAMS: 
+  GAIN=10E0 VPOS=2 VNEG=0
R_R7         N5956847 OL+  1 TC=0,0 
R_R23         N5958351 GND_FLOAT  10e3 TC=0,0 
V_Vor_4         N5960971 N5960953 0.1Vdc
R_R70A         N5962115 IN_STAGE_IN+  10 TC=0,0 
C_C13         CLAW_CLAMP GND_FLOAT  1f  TC=0,0 
R_Rsc2         GND_FLOAT SC-  1k TC=0,0 
C_C22         GND_FLOAT CL1  10p  TC=0,0 
X_U_Rinp         N5958141 GND_FLOAT R_NOISELESS PARAMS:  ROHMS=800k
X_U_R105         VSENSE GND_FLOAT R_NOISELESS PARAMS:  ROHMS=1E6
R_R13         OSTG1 VCLP  1 TC=0,0 
X_U_Rinn         GND_FLOAT N5956357 R_NOISELESS PARAMS:  ROHMS=800k
R_R5         N5959237 CLAW_CLAMP  0.01 TC=0,0 
E_E_VCVS4         N5959641 GND_FLOAT N5957311 GND_FLOAT 1
R_R20         IN+ N5958141  1 TC=0,0 
G_G_VCCS7         N5958581 GND_FLOAT IN+_CMRR GND_FLOAT 200u
C_C6         0 N5958203  1e-6  TC=0,0 
R_R_VCLP         GND_FLOAT OSTG1  1k TC=0,0 
R_R19         N5958391 SC+  1 TC=0,0 
G_G_VCCS11         N5957189 GND_FLOAT VCC VEEint -64u
R_Rsc1         GND_FLOAT SC+  1k TC=0,0 
C_C4         CL__CLAMP GND_FLOAT  1f  TC=0,0 
X_U22         N5959793 VIMON N5958391 GND_FLOAT VCVS_LIMIT PARAMS:  GAIN=100
+  VPOS=6000 VNEG=-6000
X_S4    OL- GND_FLOAT N5956883 N5956867 OPAMP_S4 
R_R21         GND_FLOAT N5958401  10e3 TC=0,0 
R_R1         VCC_CLP GND_FLOAT  100k TC=0,0 
V_V6         GND_FLOAT V_S14 20Vdc
X_S7    N5956843 GND_FLOAT VIMON N5958351 OPAMP_S7 
X_S11    GND_FLOAT SC+ N5963449 IN+_U22 OPAMP_S11 
C_C16         VEE_CLP_ACTIVE GND_FLOAT  10p  TC=0,0 
X_S5    GND_FLOAT VCC_CLP_ACTIVE N5959121 N5959237 OPAMP_S5 
C_C20         GND_FLOAT OL+  10p  TC=0,0 
L_LCM         N5958581 N5958429  1.4uH  
R_Rcc1         GND_FLOAT VCC_CLP_ACTIVE  1k TC=0,0 
X_U_Vn11         IN+_CMRR N5957311 vnoise PARAMS: 
R_R25         N5959591 SC-  1 TC=0,0 
X_U3         IN+_U22 VSENSE N5956847 GND_FLOAT VCVS_LIMIT PARAMS:  GAIN=100
+  VPOS=6000 VNEG=-6000
C_CinpCM         N5958141 GND_FLOAT  600f  TC=0,0 
X_U_In11         N5956391 N5957311 inoise PARAMS: 
E_E_VCVSCM         N5960991 N5956391 N5958581 GND_FLOAT 1
I_IS2         VCC N5957311 DC -5.1uAdc  
R_R14         N5959121 VCC_CLP_ACTIVE  1 TC=0,0 
R_R4         N5960011 CL__CLAMP  0.01 TC=0,0 
E_E34         GND_FLOAT 0 N5958203 0 1
R_R70         IN_STAGE_IN+ N5957055  1 TC=0,0 
R_RCM         GND_FLOAT N5958429  1 TC=0,0 
C_C19         SC- GND_FLOAT  10p  TC=0,0 
C_C2         N5958539 N5956305  1f  TC=0,0 
G_G9         GND_FLOAT CL__CLAMP CLAW_CLAMP GND_FLOAT 1e-3
R_R16         N5959161 VEE_CLP_ACTIVE  1 TC=0,0 
C_C17         GND_FLOAT SC+  10p  TC=0,0 
X_S10    CL1 GND_FLOAT V_S13 V_P0 OPAMP_S10 
R_R22         N5959641 IN_STAGE_IN+  10 TC=0,0 
C_C11         V_P1 GND_FLOAT  8.3f  TC=0,0 
R_R22A         N5956695 IN_STAGE_IN-  10 TC=0,0 
R_RPSR         GND_FLOAT N5961987  1 TC=0,0 
E_E_VCVS6         N5963137 GND_FLOAT VCC GND_FLOAT 1
R_Rov2         GND_FLOAT OL-  1k TC=0,0 
X_U20         VEE_CLP VOUT N5959161 GND_FLOAT VCVS_LIMIT PARAMS:  GAIN=100
+  VPOS=6000 VNEG=-6000
I_IS1         VCC VEEint DC 3.7mAdc  
X_U_R102         N5958203 N5959787 R_NOISELESS PARAMS:  ROHMS=1E6
R_R15         0 GND_FLOAT  100E6 TC=0,0 
R_R26         N5956843 VIMON  10 TC=0,0 
R_R36         VCLP N5962909  0.1 TC=0,0 
R_R28         CLAW_CLAMP GND_FLOAT  1k TC=0,0 
C_C12         GND_FLOAT VCC_CLP_ACTIVE  10p  TC=0,0 
X_S2    SC- GND_FLOAT N5960011 N5959591 OPAMP_S2 
R_R8         N5958539 N5956305  5e5 TC=0,0 
C_C15         VCC VEEint  1n  TC=0,0 
C_Cdiff         N5956357 N5958141  1.5p  TC=0,0 
R_Rov1         GND_FLOAT OL+  1k TC=0,0 
X_U1         IN+_U23 VSENSE N5956867 GND_FLOAT VCVS_LIMIT PARAMS:  GAIN=100
+  VPOS=6000 VNEG=-6000
V_V5         V_S13 GND_FLOAT 20Vdc
V_V3         N5959793 GND_FLOAT 45Vdc
C_C9         N5956843 GND_FLOAT  10e-12  TC=0,0 
C_C23         GND_FLOAT VCLP  10p  TC=0,0 
G_Gsourcing         VCC GND_FLOAT N5958401 GND_FLOAT 0.001
G_G_VCCS5         GND_FLOAT VSENSE V_P0 GND_FLOAT 1e-6
R_R2         VEE_CLP GND_FLOAT  100k TC=0,0 
C_C1         N5958539 N5958945  1n  TC=0,0 
G_G_VCCS10         GND_FLOAT V_P1 V_Z0 GND_FLOAT 1e-6
V_Vor_2         IN+_U22 N5963221 10Vdc
C_Ccc         V_P0 GND_FLOAT  172p  TC=0,0 
R_R76         N5956597 N5956281  100 TC=0,0 
E_E29         N5958189 0 VCC 0 1
G_G8         GND_FLOAT CLAW_CLAMP V_P1 GND_FLOAT 1e-3
V_Vor_3         N5959547 IN+_U23 10Vdc
X_U_R104         V_P0 GND_FLOAT R_NOISELESS PARAMS:  ROHMS=42E3
R_R33         VCLP N5963221  1k TC=0,0 
E_E_VCVS4A         N5956695 GND_FLOAT N5956391 GND_FLOAT 1
X_S9    GND_FLOAT CL1 V_P0 V_S14 OPAMP_S9 
V_Vos         IN+_CMRR N5958141 1.5uVdc
R_Roclmp         GND_FLOAT CL1  1k TC=0,0 
V_V2         GND_FLOAT N5960327 45Vdc
X_U2A         N5962459 N5962115 diode_ideal PARAMS: 
R_R35         VCLP N5960953  0.1 TC=0,0 
C_CinnCM         GND_FLOAT N5956357  600f  TC=0,0 
X_S1    GND_FLOAT SC+ N5958391 N5960011 OPAMP_S1 
R_R6         N5956883 OVER_CLAMP  0.01 TC=0,0 
E_E12         N5956597 GND_FLOAT GND_FLOAT N5956305 20e6
X_U26         IN_STAGE_IN+ IN_STAGE_IN- IN_STAGE_OUT GND_FLOAT VCCS_LIMIT
+  PARAMS:  GAIN=-100E-6 IPOS=.5 INEG=-.5
E_E28         N5959787 0 VEEint 0 1
X_U_R101         N5958189 N5958203 R_NOISELESS PARAMS:  ROHMS=1E6
X_S3    GND_FLOAT OL+ N5956847 N5956883 OPAMP_S3 
V_V8         N5957923 VEEint 0.08Vdc
V_V9         N5963137 N5956319 2.25Vdc
G_G_VCCS6         GND_FLOAT V_Z0 VSENSE GND_FLOAT 1e-6
X_U_R106         V_Z0 N5958635 R_NOISELESS PARAMS:  ROHMS=1E6
L_L1         GND_FLOAT N5958635  12mH  
X_U2         N5957055 N5956319 diode_ideal PARAMS: 
X_U_R103         IN_STAGE_OUT GND_FLOAT R_NOISELESS PARAMS:  ROHMS=1E6
V_V7         VCC N5961677 0.08Vdc
I_IS3         N5956391 VEEint DC 5uAdc  
X_S8    N5956843 GND_FLOAT VIMON N5958401 OPAMP_S8 
V_V9A         N5962459 N5963335 0.05Vdc
R_R10         N5958945 N5956305  50e6 TC=0,0 
E_E_VCVS10         N5958539 GND_FLOAT OSTG1 N5956281 -1
R_R34         VCLP N5959547  1k TC=0,0 
R_R27         CL__CLAMP GND_FLOAT  1k TC=0,0 
X_S12    SC- GND_FLOAT IN+_U23 N5960971 OPAMP_S12 
X_U23         VIMON GND_FLOAT N5961677 VCC_CLP VCVS_LIMIT PARAMS:  GAIN=0.01
+  VPOS=2 VNEG=-2
G_Gsinking         VEEint GND_FLOAT N5958351 GND_FLOAT 0.001
R_R18         IN- N5956357  1 TC=0,0 
X_U4         GND_FLOAT IN_STAGE_OUT V_P0 GND_FLOAT VCCS_LIMIT PARAMS: 
+  GAIN=1.15e-3 IPOS=0.0325 INEG=-0.0325
R_R29         OVER_CLAMP CL1  1 TC=0,0 
X_U19         VCC_CLP VOUT N5959121 GND_FLOAT VCVS_LIMIT PARAMS:  GAIN=100
+  VPOS=6000 VNEG=-6000
X_U_R107         V_P1 GND_FLOAT R_NOISELESS PARAMS:  ROHMS=1E6
X_H1    N5956281 VOUT VIMON GND_FLOAT OPAMP_H1 
X_S6    VEE_CLP_ACTIVE GND_FLOAT N5959237 N5959161 OPAMP_S6 
C_C21         OL- GND_FLOAT  10p  TC=0,0 
L_LPSR         N5957189 N5961987  1400nH  
R_R9         N5956305 N5956597  100e6 TC=0,0 
E_E_VCVS6A         N5963335 GND_FLOAT VEEint GND_FLOAT 1
V_Vor_1         N5963449 N5962909 0.1Vdc
R_Rcc2         GND_FLOAT VEE_CLP_ACTIVE  1k TC=0,0 
R_R_Vimon         VIMON GND_FLOAT  1k TC=0,0 
R_R12         N5956867 OL-  1 TC=0,0 
X_U24         GND_FLOAT VIMON VEE_CLP N5957923 VCVS_LIMIT PARAMS:  GAIN=0.01
+  VPOS=2 VNEG=-2
E_E_VCVS3         OSTG1 GND_FLOAT CL__CLAMP GND_FLOAT 1
X_U21         N5960327 VIMON N5959591 GND_FLOAT VCVS_LIMIT PARAMS:  GAIN=100
+  VPOS=6000 VNEG=-6000
.ENDS OPA830_3V
*$
.SUBCKT VCCS_LIMIT  VIN+ VIN- IOUT+ IOUT- PARAMS: GAIN=100e-6 IPOS=.5 INEG=-.5
G1 IOUT+ IOUT- VALUE={LIMIT({GAIN}*V(VIN+,VIN-),{IPOS},{INEG})}
.ENDS VCCS_LIMIT 
*$
.SUBCKT VCVS_LIMIT VIN+ VIN- VOUT+ VOUT- PARAMS: GAIN=10e0 VPOS=2 VNEG=0
E1 VOUT+ VOUT- VALUE={LIMIT({GAIN}*V(VIN+,VIN-),{VPOS},{VNEG})}
.ENDS VCVS_LIMIT
*$
.subckt OPAMP_S4 1 2 3 4  
S_S4         3 4 1 2 _S4
RS_S4         1 2 1G
.MODEL         _S4 VSWITCH Roff=100e6 Ron=1.0 Voff=-1V Von=1V
.ends OPAMP_S4
*$
.subckt OPAMP_S7 1 2 3 4  
S_S7         3 4 1 2 _S7
RS_S7         1 2 1G
.MODEL         _S7 VSWITCH Roff=1e6 Ron=1.0 Voff=0.0V Von=-0.010V
.ends OPAMP_S7
*$
.subckt OPAMP_S11 1 2 3 4  
S_S11         3 4 1 2 _S11
RS_S11         1 2 1G
.MODEL         _S11 VSWITCH Roff=1e6 Ron=10 Voff=-0.1V Von=0.1V
.ends OPAMP_S11
*$
.subckt OPAMP_S5 1 2 3 4  
S_S5         3 4 1 2 _S5
RS_S5         1 2 1G
.MODEL         _S5 VSWITCH Roff=100e6 Ron=1 Voff=-10V Von=10V
.ends OPAMP_S5
*$
.subckt OPAMP_S10 1 2 3 4  
S_S10         3 4 1 2 _S10
RS_S10         1 2 1G
.MODEL         _S10 VSWITCH Roff=100e6 Ron=1.0 Voff=0.0V Von=150V
.ends OPAMP_S10
*$
.subckt OPAMP_S2 1 2 3 4  
S_S2         3 4 1 2 _S2
RS_S2         1 2 1G
.MODEL         _S2 VSWITCH Roff=100e6 Ron=1 Voff=-10V Von=10V
.ends OPAMP_S2
*$
.subckt OPAMP_S9 1 2 3 4  
S_S9         3 4 1 2 _S9
RS_S9         1 2 1G
.MODEL         _S9 VSWITCH Roff=100e6 Ron=1.0 Voff=0.0V Von=150V
.ends OPAMP_S9
*$
.subckt OPAMP_S1 1 2 3 4  
S_S1         3 4 1 2 _S1
RS_S1         1 2 1G
.MODEL         _S1 VSWITCH Roff=100e6 Ron=1 Voff=-10V Von=10V
.ends OPAMP_S1
*$
.subckt OPAMP_S3 1 2 3 4  
S_S3         3 4 1 2 _S3
RS_S3         1 2 1G
.MODEL         _S3 VSWITCH Roff=100e6 Ron=1.0 Voff=-1V Von=1V
.ends OPAMP_S3
*$
.subckt OPAMP_S8 1 2 3 4  
S_S8         3 4 1 2 _S8
RS_S8         1 2 1G
.MODEL         _S8 VSWITCH Roff=1e6 Ron=1.0 Voff=0.0V Von=0.010V
.ends OPAMP_S8
*$
.subckt OPAMP_S12 1 2 3 4  
S_S12         3 4 1 2 _S12
RS_S12         1 2 1G
.MODEL         _S12 VSWITCH Roff=1e6 Ron=10 Voff=-0.1V Von=0.1V
.ends OPAMP_S12
*$
.subckt OPAMP_H1 1 2 3 4  
H_H1         3 4 VH_H1 1000
VH_H1         1 2 0V
.ends OPAMP_H1
*$
.subckt OPAMP_S6 1 2 3 4  
S_S6         3 4 1 2 _S6
RS_S6         1 2 1G
.MODEL         _S6 VSWITCH Roff=100e6 Ron=1 Voff=-10V Von=10V
.ends OPAMP_S6
*$
.SUBCKT R_NOISELESS  1 2 PARAMS: ROHMS=1E6
ERES 1 3 VALUE = {I(VSENSE)*{ROHMS}}
RDUMMY 30 3 1
VSENSE 30 2 DC 0V
.ENDS R_NOISELESS 
*$
.SUBCKT VNOISE 1 2
.PARAM NLF=22
.PARAM FLW=32
.PARAM NVR=9.2
.PARAM GLF={PWR(FLW,0.25)*NLF/1164}
.PARAM RNV={1.184*PWR(NVR,2)}
.MODEL DVN D KF={PWR(FLW,0.5)/1E11} IS=1.0E-16
I1 0 7 10E-3
I2 0 8 10E-3
D1 7 0 DVN
D2 8 0 DVN
E1 3 6 7 8 {GLF}
R1 3 0 1E9
R2 3 0 1E9
R3 3 6 1E9
E2 6 4 5 0 10
R4 5 0 {RNV}
R5 5 0 {RNV}
R6 3 4 1E9
R7 4 0 1E9
E3 1 2 3 4 1
C1 1 0 1E-15
C2 2 0 1E-15
C3 1 2 1E-15
.ENDS VNOISE
*$
.SUBCKT INOISE 1 2
.PARAM NLFF=8960
.PARAM FLWF=340
.PARAM NVRF=3530
.PARAM GLFF={PWR(FLWF,0.25)*NLFF/1164}
.PARAM RNVF={1.184*PWR(NVRF,2)}
.MODEL DVNF D KF={PWR(FLWF,0.5)/1E11} IS=1.0E-16
I1 0 7 10E-3
I2 0 8 10E-3
D1 7 0 DVNF
D2 8 0 DVNF
E1 3 6 7 8 {GLFF}
R1 3 0 1E9
R2 3 0 1E9
R3 3 6 1E9
E2 6 4 5 0 10
R4 5 0 {RNVF}
R5 5 0 {RNVF}
R6 3 4 1E9
R7 4 0 1E9
G1 1 2 3 4 1E-6
C1 1 0 1E-15
C2 2 0 1E-15
C3 1 2 1E-15
.ENDS INOISE
*$
.subckt diode_ideal a c
d1 a c dnom
.model dnom d
+ tt=1e-011
+ cjo=1e-018
+ is=1e-015
+ rs=0.001
.ends diode_ideal
*$
