* OPA856 - Rev. A
* Created by Hasan Babiker; 2020-09-24
* Created with Green-Williams-Lis Current Sense Amp Macro-model Architecture
* Copyright 2020 by Texas Instruments Corporation
******************************************************
* MACRO-MODEL SIMULATED PARAMETERS:
******************************************************
* AC PARAMETERS
**********************
* CLOSED-LOOP OUTPUT IMPEDANCE VS. FREQUENCY (Zout vs. Freq.)
* CLOSED-LOOP GAIN AND PHASE VS. FREQUENCY  WITH RL, CL EFFECTS (Acl vs. Freq.)
* COMMON-MODE REJECTION RATIO VS. FREQUENCY (CMRR vs. Freq.)
* POWER SUPPLY REJECTION RATIO VS. FREQUENCY (PSRR vs. Freq.)
* INPUT VOLTAGE NOISE DENSITY VS. FREQUENCY (en vs. Freq.)
**********************
* DC PARAMETERS
**********************
* INPUT COMMON-MODE VOLTAGE RANGE (Vcm)
* GAIN ERROR (Eg)
* INPUT BIAS CURRENT VS. INPUT COMMON-MODE VOLTAGE (Ib vs. Vcm)
* INPUT OFFSET VOLTAGE VS. TEMPERATURE (Vos vs. Temp)
* OUTPUT VOLTAGE SWING vs. OUTPUT CURRENT (Vout vs. Iout)
* SHORT-CIRCUIT OUTPUT CURRENT (Isc)
* QUIESCENT CURRENT (Iq)
**********************
* TRANSIENT PARAMETERS
**********************
* SLEW RATE (SR)
* SETTLING TIME VS. CAPACITIVE LOAD (ts)
* OVERLOAD RECOVERY TIME (tor)
******************************************************
.subckt OPA856 IN+ IN- VCC VEE OUT
******************************************************
.MODEL R_NOISELESS RES (T_ABS=-273.15)
C_C12         MID N45892  1E-15   
C_C13         N45974 MID  1E-15   
C_C1A         N1634353 N1634387  1.46E-14   
C_C1A16         N1497038 CMRR  2.274E-13   
C_C1A17         N1499813 PSRP  3.537E-13   
C_C1A18         N1499703 N1499697  9.947E-16   
C_C1A23         N1496932 N1496926  8.511E-15   
C_C1A26         N964475 N964485  1.976E-10   
C_C1A27         MID N1643659  5.305E-16   
C_C1A28         MID N1643851  4.737E-13   
C_C1A3         MID N16709581  9.095E-15   
C_C1B         N1634433 N1634507  7.579E-14   
C_C1B1         N1634951 N1635005  7.579E-14   
C_C1C         MID N1634799  5.305E-15   
C_C1C1         MID N1635213  5.305E-15   
C_C33         N406634 0  1E-15   
C_C34         N317950 0  1   
C_C35         N406794 0  1E-15   
C_C37         MID CLAMP  15.15E-13   
C_C7         N31014 MID  1E-15   
C_C8         MID N35813  1E-15   
C_C9         MID N38096  1E-15   
C_C_CMN         MID ESDN  0.7E-12   
C_C_CMP         ESDP MID  0.7E-12   
C_C_DIFF         ESDN ESDP  0.4E-12   
C_C_VIMON         MID VIMON  1E-12   
C_C_VOUT_S         MID VOUT_S  1E-12   
E_E3         N112292 MID OUT MID 1
E_E6         MID 0 N317950 0 1
G_G1         N1634353 MID VEE_B MID -1.742E-1
G_G102         N1643803 MID N964485 MID -1
G_G103         N1643637 MID N1643825 MID -1
G_G12         VSENSE MID CLAMP MID -1E-3
G_G16         CL_CLAMP MID N886982 MID -1E-3
G_G2         CMRR_2 N10561 CMRR MID -1E-3
G_G3         N1634951 MID N1634507 MID -2.024
G_G36         VCC_B 0 VCC 0 -1
G_G37         VEE_B 0 VEE 0 -1
G_G4         N1635235 MID N1634795 MID -1
G_G6         N25816 N11984 PSRP PSRM -1E-3
G_G64         N964475 MID CL_CLAMP N851538 -2.694
G_G76         N1496932 MID ESDP MID -7.064E-3
G_G77         N1497038 MID N1496926 MID -1.429E2
G_G78         N1499813 MID N1499697 MID -2.222E1
G_G79         N1499703 MID VCC_B MID -1.742E-2
G_G8         VCC_CLP MID N35813 MID -1E-3
G_G80         N1634433 MID N1634387 MID -1
G_G82         N1634845 MID N1635005 MID -2.024
G_G9         VEE_CLP MID N38096 MID -1E-3
G_G97         N1671002 MID VSENSE MID -1
I_I_B         N06456 MID DC 12E-6  
I_I_OS         ESDN MID DC 11.9E-6  
I_I_Q         VCC VEE DC 17.2E-3  
R_R1         ESDP IN+ R_NOISELESS 10E-3
R_R10         ESDN N11991 R_NOISELESS 1E-3
R_R107         VCC_B 0 R_NOISELESS 1
R_R108         N317950 0 R_NOISELESS 1E12
R_R109         VEE_B 0 R_NOISELESS 1
R_R110         VCC_B N406634 R_NOISELESS 1E-3
R_R111         N406634 N317950 R_NOISELESS 1E6
R_R112         N317950 N406794 R_NOISELESS 1E6
R_R113         N406794 VEE_B R_NOISELESS 1E-3
R_R146         N1496932 MID R_NOISELESS 1
R_R147         N1497038 MID R_NOISELESS 1
R_R148         N1499703 MID R_NOISELESS 1
R_R149         N1499813 MID R_NOISELESS 1
R_R151         MID N851530 R_NOISELESS 1
R_R162         MID N964475 R_NOISELESS 1
R_R169         ESDP ESDN R_NOISELESS 4.5E3
R_R170         N1634353 MID R_NOISELESS 1
R_R171         N1634433 MID R_NOISELESS 1
R_R172         MID N1634845 R_NOISELESS 1
R_R174         N1634951 MID R_NOISELESS 1
R_R175         MID N1635235 R_NOISELESS 1
R_R1A         N964485 N964475 R_NOISELESS 10E3
R_R1A14         N1496932 N1496926 R_NOISELESS 100E6
R_R1A15         N1497038 CMRR R_NOISELESS 1E4
R_R1A16         N1499703 N1499697 R_NOISELESS 100E6
R_R1A17         N1499813 PSRP R_NOISELESS 1E4
R_R1A18         N1634353 N1634387 R_NOISELESS 1E8
R_R1A22         N1643649 N1643637 R_NOISELESS 2.043E5
R_R1A23         N1643825 N1643803 R_NOISELESS 6.39E3
R_R1A3         N886982 N1671002 R_NOISELESS 1.076E4
R_R1B         N1634433 N1634507 R_NOISELESS 1E4
R_R1B6         N1634951 N1635005 R_NOISELESS 1E4
R_R1C         N1634799 N1634795 R_NOISELESS 1E4
R_R1C1         N1635213 PSRM R_NOISELESS 1E4
R_R2         ESDN IN- R_NOISELESS 10E-3
R_R21         N11984 N25816 R_NOISELESS 1E3
R_R235         MID N1671002 R_NOISELESS 1
R_R239         MID N1643637 R_NOISELESS 1
R_R240         MID N1643803 R_NOISELESS 1
R_R25         MID N28602 R_NOISELESS 1E9
R_R26         N30136 MID R_NOISELESS 1E9
R_R27         MID N30913 R_NOISELESS 1
R_R28         N31014 N30913 R_NOISELESS 1E-3
R_R29         N35669 VCC_B R_NOISELESS 1E3
R_R2A         N1634387 MID R_NOISELESS 2.565E4
R_R2A16         N1496926 MID R_NOISELESS 4.157E4
R_R2A18         CMRR MID R_NOISELESS 7.049E1
R_R2A19         PSRP MID R_NOISELESS 4.712E2
R_R2A20         N1499697 MID R_NOISELESS 2.291E5
R_R2A23         MID N964485 R_NOISELESS 5.903E3
R_R2A24         N1643659 N1643649 R_NOISELESS 10E3
R_R2A25         N1643851 N1643825 R_NOISELESS 10E3
R_R2A3         N16709581 N886982 R_NOISELESS 10E3
R_R2B         N1634507 MID R_NOISELESS 9.767E3
R_R2B4         N1635005 MID R_NOISELESS 9.767E3
R_R2C         N1634845 N1634795 R_NOISELESS 6.059E4
R_R2C1         N1635235 PSRM R_NOISELESS 6.059E4
R_R3         MID ESDP R_NOISELESS 2.3E6
R_R30         N35813 N35669 R_NOISELESS 1E-3
R_R31         VCC_CLP MID R_NOISELESS 1E3
R_R32         N38050 VEE_B R_NOISELESS 1E3
R_R33         N38096 N38050 R_NOISELESS 1E-3
R_R34         VEE_CLP MID R_NOISELESS 1E3
R_R4         ESDN MID R_NOISELESS 2.3E6
R_R41         MID N50645 R_NOISELESS 1E9
R_R42         N45856 MID R_NOISELESS 1
R_R43         N45892 N45856 R_NOISELESS 1E-3
R_R44         N45974 N45986 R_NOISELESS 1E-3
R_R45         MID N45986 R_NOISELESS 1
R_R46         MID N48550 R_NOISELESS 1E9
R_R60         MID AOLNET R_NOISELESS 1E6
R_R62         MID VSENSE R_NOISELESS 1E3
R_R66         MID CL_CLAMP R_NOISELESS 1E3
R_R8         N10561 CMRR_2 R_NOISELESS 1E3
R_R81         MID N110431 R_NOISELESS 1E9
R_R83         MID N112292 R_NOISELESS 1E9
R_R9         CMRR_2 N11984 R_NOISELESS 1E-3
R_RDUMMY1         MID N851538 R_NOISELESS 1.08E2
R_RX1         N851538 N851530 R_NOISELESS 1.08E3
R_R_VIMON         VIMON N110431 R_NOISELESS 10
R_R_VOUT_S         VOUT_S N112292 R_NOISELESS 10
V_VCM_MAX         N30136 VCC_B -0.4
V_VCM_MIN         N28602 VEE_B 1.1
V_V_ISCN         N48550 MID -105
V_V_ISCP         N50645 MID 105
X_AOL_1         N31014 N11991 MID AOLNET AOL_1 
X_AOL_2         AOLNET MID MID CLAMP AOL_2_OPA856 
X_CLAWN         MID VIMON VEE_B N38050 CLAWN_OPA856 
X_CLAWP         VIMON MID N35669 VCC_B CLAWP_OPA856 
X_CL_AMP         N50645 N48550 VIMON MID N45856 N45986 CLAMP_AMP_LO_OPA856 
X_CL_SRC         N45892 N45974 CL_CLAMP MID CL_SRC_OPA856 
X_ESD_IN         ESDN ESDP VCC VEE ESD_IN_OPA856 
X_ESD_OUT         OUT VCC VEE ESD_OUT_OPA856 
X_E_N         ESDP N06456 VNSE_OPA856 
X_H3    OUT N851538 N110431 MID 08_OP_AMP_COMPLETE_H3_OPA856 
X_IQ_N         MID VIMON MID VEE IQ_SRC_OPA856 
X_IQ_P         VIMON MID VCC MID IQ_SRC_OPA856 
X_I_NN         ESDN MID FEMT_OPA856 
X_I_NP         N06456 MID FEMT_OPA856 
X_S1    OUT VCC_CLP CLAMP MID 08_OP_AMP_COMPLETE_S1_OPA856 
X_S2    ESDN ESDP ESDN ESDP 08_OP_AMP_COMPLETE_S2_OPA856 
X_S3    ESDP ESDN ESDP ESDN 08_OP_AMP_COMPLETE_S3_OPA856 
X_S4    VEE_CLP OUT CLAMP MID 08_OP_AMP_COMPLETE_S4_OPA856 
X_VCM_CLAMP         N25816 MID N30913 MID N30136 N28602 VCM_CLAMP_OPA856 
X_VOS_DRIFT         N10561 N06456 VOS_DRIFT_OPA856 
X_ZO_SRC         N1643649 MID MID N851530 ZO_SRC_OPA856 
.ENDS  OPA856
*
.SUBCKT 08_OP_AMP_COMPLETE_H3_OPA856 1 2 3 4  
H_H3         3 4 VH_H3 -1E3
VH_H3         1 2 0V
.ENDS  08_OP_AMP_COMPLETE_H3_OPA856
*
.SUBCKT 08_OP_AMP_COMPLETE_S1_OPA856 1 2 3 4  
S_S1         3 4 1 2 _S1
RS_S1         1 2 1G
.MODEL         _S1 VSWITCH ROFF=2E6 RON=1E-3 VOFF=-1 VON=1.88
.ENDS  08_OP_AMP_COMPLETE_S1_OPA856
*
.SUBCKT 08_OP_AMP_COMPLETE_S2_OPA856 1 2 3 4  
S_S2         3 4 1 2 _S2
RS_S2         1 2 1G
.MODEL         _S2 VSWITCH ROFF=1E12 RON=50 VOFF=0.9 VON=1
.ENDS  08_OP_AMP_COMPLETE_S2_OPA856
*
.SUBCKT 08_OP_AMP_COMPLETE_S3_OPA856 1 2 3 4  
S_S3         3 4 1 2 _S3
RS_S3         1 2 1G
.MODEL         _S3 VSWITCH ROFF=1E12 RON=50 VOFF=0.9 VON=1
.ENDS  08_OP_AMP_COMPLETE_S3_OPA856
*
.SUBCKT 08_OP_AMP_COMPLETE_S4_OPA856 1 2 3 4  
S_S4         3 4 1 2 _S4
RS_S4         1 2 1G
.MODEL         _S4 VSWITCH ROFF=2E6 RON=1E-3 VOFF=-1 VON=1.9
.ENDS  08_OP_AMP_COMPLETE_S4_OPA856
*
.SUBCKT AOL_1 VC+ VC- IOUT+ IOUT-
.PARAM GAIN = 1E-4
.PARAM IPOS = .5
.PARAM INEG = -.5
G1 IOUT+ IOUT- VALUE={LIMIT(GAIN*V(VC+,VC-),INEG,IPOS)}
.ENDS  AOL_1
*
.SUBCKT AOL_2_OPA856 VC+ VC- IOUT+ IOUT-
.PARAM GAIN = 10.25E-5
.PARAM IPOS = 6.11E-4
.PARAM INEG = -5.77E-4
G1 IOUT+ IOUT- VALUE={LIMIT(GAIN*V(VC+,VC-),INEG,IPOS)}
.ENDS  AOL_2_OPA856
*
.SUBCKT CLAMP_AMP_LO_OPA856 VC+ VC- VIN COM VO+ VO-
.PARAM G=1
GVO+ COM VO+ VALUE = {IF(V(VIN,COM)>V(VC+,COM),((V(VIN,COM)-V(VC+,COM))*G),0)}
GVO- COM VO- VALUE = {IF(V(VIN,COM)<V(VC-,COM),((V(VC-,COM)-V(VIN,COM))*G),0)}
.ENDS  CLAMP_AMP_LO_OPA856
*
.SUBCKT CLAWN_OPA856 VC+ VC- IOUT+ IOUT-
G1 IOUT+ IOUT- TABLE {(V(VC+,VC-))} =
+(0, 1.038E-03)
+(40, 1.372E-03)
+(60, 1.516E-03)
+(80, 1.664E-03)
+(90, 1.749E-03)
+(98, 1.844E-03)
+(100, 1.886E-03)
+(102, 1.958E-03)
+(104, 2.357E-03)
.ENDS  CLAWN_OPA856
*
.SUBCKT CLAWP_OPA856 VC+ VC- IOUT+ IOUT-
G1 IOUT+ IOUT- TABLE {(V(VC+,VC-))} =
+(0, 8.277E-04)
+(20, 1.044E-03)
+(60, 1.413E-03)
+(70, 1.523E-03)
+(80, 1.657E-03)
+(86, 1.778E-03)
+(90, 1.921E-03)
+(96, 2.218E-03)
+(100, 2.453E-03)
.ENDS  CLAWP_OPA856
*
.SUBCKT CL_SRC_OPA856 VC+ VC- IOUT+ IOUT-
.PARAM GAIN = 1
.PARAM IPOS = 0.06
.PARAM INEG = -0.06
G1 IOUT+ IOUT- VALUE={LIMIT(GAIN*V(VC+,VC-),INEG,IPOS)}
.ENDS  CL_SRC_OPA856
*
.SUBCKT ESD_IN_OPA856 ESDN ESDP VCC VEE
.MODEL ESD_SW VSWITCH(RON=50 ROFF=1E12 VON=500E-3 VOFF=450E-3)
S1 VCC ESDN ESDN VCC ESD_SW
S2 VCC ESDP ESDP VCC ESD_SW
S3 ESDN VEE VEE ESDN ESD_SW
S4 ESDP VEE VEE ESDP ESD_SW
.ENDS  ESD_IN_OPA856
*
.SUBCKT ESD_OUT_OPA856 OUT VCC VEE
.MODEL ESD_SW VSWITCH(RON=50 ROFF=1E12 VON=500E-3 VOFF=450E-3)
S1 VCC OUT OUT VCC ESD_SW
S2 OUT VEE VEE OUT ESD_SW
.ENDS  ESD_OUT_OPA856
*
.SUBCKT FEMT_OPA856 1 2
.PARAM FLWF=1000
.PARAM NLFF=21.524E3
.PARAM NVRF=2.573E3
.PARAM GLFF={PWR(FLWF,0.25)*NLFF/1164}
.PARAM RNVF={1.184*PWR(NVRF,2)}
.MODEL DNVF D KF={PWR(FLWF,0.5)/1E11} IS=1.0E-16
I1 0 7 10E-3
I2 0 8 10E-3
D1 7 0 DNVF
D2 8 0 DNVF
E1 3 6 7 8 {GLFF}
R1 3 0 1E9
R2 3 0 1E9
R3 3 6 1E9
E2 6 4 5 0 10
R4 5 0 {RNVF}
R5 5 0 {RNVF}
R6 3 4 1E9
R7 4 0 1E9
G1 1 2 3 4 1E-6
.ENDS  FEMT_OPA856
*
.SUBCKT IQ_SRC_OPA856 VC+ VC- IOUT+ IOUT-
.PARAM GAIN = 1E-3
G1 IOUT+ IOUT- VALUE={IF( (V(VC+,VC-)<=0),0,GAIN*V(VC+,VC-) )}
.ENDS  IQ_SRC_OPA856
*
.SUBCKT VCM_CLAMP_OPA856 VIN+ VIN- IOUT- IOUT+ VP+ VP-
.PARAM GAIN = 1
G1 IOUT+ IOUT- VALUE={LIMIT(GAIN*V(VIN+,VIN-),V(VP-,VIN-), V(VP+,VIN-))}
.ENDS  VCM_CLAMP_OPA856
*
.SUBCKT VNSE_OPA856 1 2
.PARAM FLW=1000
.PARAM NLF=2.719
.PARAM NVR=0.9231
.PARAM GLF={PWR(FLW,0.25)*NLF/1164}
.PARAM RNV={1.184*PWR(NVR,2)}
.MODEL DVN D KF={PWR(FLW,0.5)/1E11} IS=1.0E-16
I1 0 7 10E-3
I2 0 8 10E-3
D1 7 0 DVN
D2 8 0 DVN
E1 3 6 7 8 {GLF}
R1 3 0 1E9
R2 3 0 1E9
R3 3 6 1E9
E2 6 4 5 0 10
R4 5 0 {RNV}
R5 5 0 {RNV}
R6 3 4 1E9
R7 4 0 1E9
E3 1 2 3 4 1
.ENDS  VNSE_OPA856
*
.SUBCKT VOS_DRIFT_OPA856 VOS+ VOS-
.PARAM DC = 3.682E-6
.PARAM POL = 1
.PARAM DRIFT = 0.6E-6
E1 VOS+ VOS- VALUE={DC+POL*DRIFT*(TEMP-27)}
.ENDS  VOS_DRIFT_OPA856
*
.SUBCKT ZO_SRC_OPA856 VC+ VC- IOUT+ IOUT-
.PARAM GAIN = 89.061
.PARAM IPOS = 300
.PARAM INEG = -300
G1 IOUT+ IOUT- VALUE={LIMIT(GAIN*V(VC+,VC-),INEG,IPOS)}
.ENDS  ZO_SRC_OPA856
*