*$  
* OPA2206
*****************************************************************************
* (C) Copyright 2020 Texas Instruments Incorporated. All rights reserved.                                            
*****************************************************************************
** This model is designed as an aid for customers of Texas Instruments.
** TI and its licensors and suppliers make no warranties, either expressed
** or implied, with respect to this model, including the warranties of 
** merchantability or fitness for a particular purpose.  The model is
** provided solely on an "as is" basis.  The entire risk as to its quality
** and performance is with the customer
*****************************************************************************
*
* This model is subject to change without notice. Texas Instruments
* Incorporated is not responsible for updating this model.
*
*****************************************************************************
*****************************************************************************
*
** Released by: Online Design Tools, Texas Instruments Inc.
* Part: OPA2206
* Date: 28APR2020
* Model Type: Generic (suitable for all analysis types)
* EVM Order Number: N/A 
* EVM Users Guide:  N/A 
* Datasheet: .
* Created with Green-Williams-Lis Op Amp Macro-model Architecture
*
* Model Version: Preliminary 1.0
*
*****************************************************************************
*
* Preliminary 1.0
* Release to Web.
*
*****************************************************************************
.SUBCKT OPA206 IN+ IN- VCC VEE OUT
V_GRp       23 MID 120
V_GRn       24 MID -120
V_ISCp      38 MID 24.5
V_ISCn      39 MID -24.5
V_ORn       37 VCLP -3.2
V11         43 36 0
V_ORp       35 VCLP 10.9
V12         42 34 0
V4          56 OUT 0
Vos         59 60 997N
Ibias_INP   ESDp MID 90P
Ibias_INN   ESDn MID 76P
VCM_MIN     92 VEE_B 1
VCM_MAX     93 VCC_B -1.4
I_Q         VCC VEE 203.9U
R27         MID VSENSE R_RES_1 1K 
G15         VSENSE MID CLAMP MID  -1M
S1          21 22 SW_OL MID  S_VSWITCH_1
XGR_AMP     23 24 25 MID 26 27 CLAMP_AMP_HI_0
R106        23 MID R_RES_2 1G 
R105        24 MID R_RES_3 1G 
R104        VSENSE 25 R_RES_4 1M 
C39         25 MID 1F 
R103        26 MID R_RES_5 1 
R102        MID 27 R_RES_6 1 
R101        26 28 R_RES_7 1M 
R100        27 29 R_RES_8 1M 
C38         28 MID 1F 
C37         MID 29 1F 
XGR_SRC     28 29 CLAMP MID VCCS_LIM_GR_0
C36         30 MID 1P 
R99         31 30 R_RES_9 100 
C35         32 MID 1P 
R98         33 32 R_RES_10 100 
R97         MID 34 R_RES_11 1 
G11         34 MID 35 MID  -1
R96         36 MID R_RES_12 1 
G10         36 MID 37 MID  -1
XIQp        VIMON MID MID VCC VCCS_LIMIT_IQ_0
XIQn        MID VIMON VEE MID VCCS_LIMIT_IQ_0
XCL_AMP     38 39 VIMON MID 40 41 CLAMP_AMP_LO_0
SOR_SWp     CLAMP 42 CLAMP 42  S_VSWITCH_2
SOR_SWn     43 CLAMP 43 CLAMP  S_VSWITCH_3
R95         40 MID R_RES_13 1 
R94         MID 41 R_RES_14 1 
R93         40 44 R_RES_15 1M 
R92         41 45 R_RES_16 1M 
C34         44 MID 1F 
C33         MID 45 1F 
XCL_SRC     44 45 CL_CLAMP MID VCCS_LIM_4_0
R91         38 MID R_RES_17 1G 
R90         MID 39 R_RES_18 1G 
XCLAWp      VIMON MID 46 VCC_B VCCS_LIM_CLAW+_0
XCLAWn      MID VIMON VEE_B 47 VCCS_LIM_CLAW-_0
R87         46 VCC_B R_RES_19 1K 
R86         46 48 R_RES_20 1M 
R85         VEE_B 47 R_RES_21 1K 
R84         49 47 R_RES_22 1M 
C32         49 MID 1F 
C31         MID 48 1F 
GVCCS21     VCC_CLP MID 48 MID  -1M
R83         VCC_CLP MID R_RES_23 1K 
GVCCS20     VEE_CLP MID 49 MID  -1M
R82         MID VEE_CLP R_RES_24 1K 
XCLAW_AMP   VCC_CLP VEE_CLP VOUT_S MID 50 51 CLAMP_AMP_LO_0
R81         VCC_CLP MID R_RES_25 1G 
R80         VEE_CLP MID R_RES_26 1G 
R79         50 MID R_RES_27 1 
R78         MID 51 R_RES_28 1 
R77         50 52 R_RES_29 1M 
R76         51 53 R_RES_30 1M 
C30         52 MID 1F 
C7          MID 53 1F 
XCLAW_SRC   52 53 CLAW_CLAMP MID VCCS_LIM_3_0
H2          33 MID V11 -1
H3          31 MID V12 1
C6          SW_OL MID 1P 
R75         54 SW_OL R_RES_31 100 
R12         54 MID R_RES_32 1 
XOL_SENSE   MID 54 32 30 OL_SENSE_0
S5          VEE ESDp VEE ESDp  S_VSWITCH_4
S4          VEE ESDn VEE ESDn  S_VSWITCH_5
S2          ESDn VCC ESDn VCC  S_VSWITCH_6
S3          ESDp VCC ESDp VCC  S_VSWITCH_7
H1          55 MID V4 1K
S7          VEE OUT VEE OUT  S_VSWITCH_8
S6          OUT VCC OUT VCC  S_VSWITCH_9
R50         MID 57 R_RES_33 1T 
R49         57 VOUT_S R_RES_34 100 
C18         VOUT_S MID 1N 
E5          57 MID OUT MID  1
C17         VIMON MID 1N 
R48         55 VIMON R_RES_35 100 
R28         MID 55 R_RES_36 1T 
C24         VCLP MID 1N 
R47         58 VCLP R_RES_37 100 
Xi_p        MID ESDn FEMT_0
Xi_n        MID 59 FEMT_0
Xe_n        ESDp 59 VNSE_0
R_PSR       60 61 R_RES_38 1K 
G_PSR       61 60 62 63  -1M
R74         MID 62 R_RES_39 1 
GVCCS19     62 MID 64 MID  -1
C29         65 MID 79.58F 
R73         64 65 R_RES_40 10K 
R72         66 64 R_RES_41 200.5K 
R71         MID 66 R_RES_42 1 
GVCCS18     66 MID 67 MID  -257.5
R70         67 MID R_RES_43 38.99 
C28         68 67 2.499N 
R69         68 67 R_RES_44 10K 
R68         MID 68 R_RES_45 1 
GVCCS17     68 MID 69 MID  -1
R67         MID 69 R_RES_46 288.4 
C27         69 70 773P 
R66         70 69 R_RES_47 100MEG 
GVCCS16     70 MID VCC_B MID  -2.318M
R65         MID 70 R_RES_48 1 
C26         71 MID 397.9F 
R64         72 71 R_RES_49 10K 
R63         73 72 R_RES_50 30K 
R62         MID 73 R_RES_51 1 
GVCCS15     73 MID 74 MID  -1
C25         75 MID 15.92P 
R61         74 75 R_RES_52 10K 
R58         76 74 R_RES_53 2.5K 
R57         MID 76 R_RES_54 1 
GVCCS14     76 MID 77 MID  -1
R56         MID 63 R_RES_55 1 
GVCCS11     63 MID 72 MID  -4
R55         MID 77 R_RES_56 10 
C23         77 78 6.31N 
R54         78 77 R_RES_57 100MEG 
G_adjust    78 MID VEE_B MID  -63.1M
R53         MID 78 R_RES_58 1 
R_CMR       60 60 R_RES_59 1K 
G_CMR       60 60 79 MID  -1M
R52         MID 80 R_RES_60 1 
GVCCS10     80 MID 81 MID  -1
C22         82 MID 1.989P 
R51         81 82 R_RES_61 10K 
R44         83 81 R_RES_62 30K 
R2a         MID 84 R_RES_63 2.667 
GVCCS9      83 MID 84 MID  -1
GVCCS8      86 MID 85 MID  -1.588
R43         MID 83 R_RES_64 1 
R33         MID 86 R_RES_65 1 
R32         80 85 R_RES_66 10K 
C21         80 85 1.989P 
R31         85 MID R_RES_67 17.02K 
R30         86 87 R_RES_68 833.9K 
R29         87 88 R_RES_69 10K 
C20         88 MID 39.79F 
R19         79 MID R_RES_70 1 
GVCCS7      79 MID 87 MID  -1
C1a         84 89 19.89N 
R1a         89 84 R_RES_71 100MEG 
G_1         89 MID ESDp MID  -651.7M
Rsrc        MID 89 R_RES_72 1 
C19         90 MID 1F 
R26         90 91 R_RES_73 1M 
R25         MID 92 R_RES_74 1T 
R24         93 MID R_RES_75 1T 
R23         MID 91 R_RES_76 1 
XVCM_CLAMP  61 MID 91 MID 93 92 VCCS_EXT_LIM_0
E4          58 MID CL_CLAMP MID  1
E1          MID 0 94 0  1
R89         VEE_B 0 R_RES_77 1 
R22         95 VEE_B R_RES_78 1M 
C16         95 0 1F 
R60         94 95 R_RES_79 1MEG 
C4          94 0 1 
R21         94 0 R_RES_80 1T 
R59         96 94 R_RES_81 1MEG 
C3          96 0 1F 
R20         VCC_B 96 R_RES_82 1M 
R88         VCC_B 0 R_RES_83 1 
G_VEE_Buffer VEE_B 0 VEE 0  -1
G_VCC_Buffer VCC_B 0 VCC 0  -1
R16         97 MID R_RES_84 70K 
C5          98 97 2.274P 
R13         98 97 R_RES_85 10K 
R10         99 MID R_RES_86 1 
R3          98 MID R_RES_87 1 
GVCCS4      99 MID 97 MID  -1.143
GVCCS1      98 MID VSENSE MID  -1
C2          CLAMP MID 9.17U 
R2          MID CLAMP R_RES_88 1MEG 
XVCCS_LIM_2 100 MID MID CLAMP VCCS_LIM_2_0
R1          MID 100 R_RES_89 1MEG 
XVCCS_LIM_1 90 ESDn MID 100 VCCS_LIM_1_0
R46         MID CL_CLAMP R_RES_90 1K 
G9          CL_CLAMP MID CLAW_CLAMP MID  -1M
R45         MID CLAW_CLAMP R_RES_91 1K 
G8          CLAW_CLAMP MID 99 MID  -1M
R11         ESDp ESDn R_RES_92 3MEG 
C11         ESDp ESDn 4P 
R15         MID ESDn R_RES_93 100G 
C13         MID ESDn 4P 
R14         MID ESDp R_RES_94 100G 
C12         MID ESDp 4P 
Rdcop11     IN+ ESDp R_RES_95 10M 
Rdcop12     IN- ESDn R_RES_96 10M 
XVCCS_LIM_ZO 101 MID MID 102 VCCS_LIM_ZO_0
R42         102 MID R_RES_97 1 
R41         101 MID R_RES_98 543 
C10         103 101 515.1F 
R40         103 101 R_RES_99 10K 
R39         104 105 R_RES_100 10K 
C9          105 MID 265.3F 
R38         106 104 R_RES_101 18.71K 
R37         106 MID R_RES_102 1 
R36         103 MID R_RES_103 1 
GVCCS13     103 MID 104 MID  -1
GVCCS12     106 MID 107 MID  -1
R35         107 108 R_RES_104 10K 
C8          108 MID 26.53P 
R34         109 107 R_RES_105 30K 
R9          109 MID R_RES_106 1 
GVCCS3      109 MID 22 MID  -44.7
C1          21 22 159.2U 
R8          22 MID R_RES_107 228.8 
R7          21 22 R_RES_108 10K 
R6          56 MID R_RES_109 32.2K 
R5          102 56 R_RES_110 322K 
R4          21 MID R_RES_111 1 
GVCCS2      21 MID CL_CLAMP 56  -89
.MODEL R_RES_1 RES ( TCE=0 T_ABS=-273.15)
.MODEL S_VSWITCH_1 VSWITCH (RON=1M ROFF=1G VON=900M VOFF=800M)
.MODEL R_RES_2 RES ( TCE=0 T_ABS=-273.15)
.MODEL R_RES_3 RES ( TCE=0 T_ABS=-273.15)
.MODEL R_RES_4 RES ( TCE=0 T_ABS=-273.15)
.MODEL R_RES_5 RES ( TCE=0 T_ABS=-273.15)
.MODEL R_RES_6 RES ( TCE=0 T_ABS=-273.15)
.MODEL R_RES_7 RES ( TCE=0 T_ABS=-273.15)
.MODEL R_RES_8 RES ( TCE=0 T_ABS=-273.15)
.MODEL R_RES_9 RES ( TCE=0 T_ABS=-273.15)
.MODEL R_RES_10 RES ( TCE=0 T_ABS=-273.15)
.MODEL R_RES_11 RES ( TCE=0 T_ABS=-273.15)
.MODEL R_RES_12 RES ( TCE=0 T_ABS=-273.15)
.MODEL S_VSWITCH_2 VSWITCH (RON=10M ROFF=1G VON=10M VOFF=0)
.MODEL S_VSWITCH_3 VSWITCH (RON=10M ROFF=1G VON=10M VOFF=0)
.MODEL R_RES_13 RES ( TCE=0 T_ABS=-273.15)
.MODEL R_RES_14 RES ( TCE=0 T_ABS=-273.15)
.MODEL R_RES_15 RES ( TCE=0 T_ABS=-273.15)
.MODEL R_RES_16 RES ( TCE=0 T_ABS=-273.15)
.MODEL R_RES_17 RES ( TCE=0 T_ABS=-273.15)
.MODEL R_RES_18 RES ( TCE=0 T_ABS=-273.15)
.MODEL R_RES_19 RES ( TCE=0 T_ABS=-273.15)
.MODEL R_RES_20 RES ( TCE=0 T_ABS=-273.15)
.MODEL R_RES_21 RES ( TCE=0 T_ABS=-273.15)
.MODEL R_RES_22 RES ( TCE=0 T_ABS=-273.15)
.MODEL R_RES_23 RES ( TCE=0 T_ABS=-273.15)
.MODEL R_RES_24 RES ( TCE=0 T_ABS=-273.15)
.MODEL R_RES_25 RES ( TCE=0 T_ABS=-273.15)
.MODEL R_RES_26 RES ( TCE=0 T_ABS=-273.15)
.MODEL R_RES_27 RES ( TCE=0 T_ABS=-273.15)
.MODEL R_RES_28 RES ( TCE=0 T_ABS=-273.15)
.MODEL R_RES_29 RES ( TCE=0 T_ABS=-273.15)
.MODEL R_RES_30 RES ( TCE=0 T_ABS=-273.15)
.MODEL R_RES_31 RES ( TCE=0 T_ABS=-273.15)
.MODEL R_RES_32 RES ( TCE=0 T_ABS=-273.15)
.MODEL S_VSWITCH_4 VSWITCH (RON=50 ROFF=1T VON=500M VOFF=450M)
.MODEL S_VSWITCH_5 VSWITCH (RON=50 ROFF=1T VON=500M VOFF=450M)
.MODEL S_VSWITCH_6 VSWITCH (RON=50 ROFF=1T VON=500M VOFF=450M)
.MODEL S_VSWITCH_7 VSWITCH (RON=50 ROFF=1T VON=500M VOFF=450M)
.MODEL S_VSWITCH_8 VSWITCH (RON=50 ROFF=1T VON=500M VOFF=100M)
.MODEL S_VSWITCH_9 VSWITCH (RON=50 ROFF=1T VON=500M VOFF=100M)
.MODEL R_RES_33 RES ( TCE=0 T_ABS=-273.15)
.MODEL R_RES_34 RES ( TCE=0 T_ABS=-273.15)
.MODEL R_RES_35 RES ( TCE=0 T_ABS=-273.15)
.MODEL R_RES_36 RES ( TCE=0 T_ABS=-273.15)
.MODEL R_RES_37 RES ( TCE=0 T_ABS=-273.15)
.MODEL R_RES_38 RES ( TCE=0 T_ABS=-273.15)
.MODEL R_RES_39 RES ( TCE=0 T_ABS=-273.15)
.MODEL R_RES_40 RES ( TCE=0 T_ABS=-273.15)
.MODEL R_RES_41 RES ( TCE=0 T_ABS=-273.15)
.MODEL R_RES_42 RES ( TCE=0 T_ABS=-273.15)
.MODEL R_RES_43 RES ( TCE=0 T_ABS=-273.15)
.MODEL R_RES_44 RES ( TCE=0 T_ABS=-273.15)
.MODEL R_RES_45 RES ( TCE=0 T_ABS=-273.15)
.MODEL R_RES_46 RES ( TCE=0 T_ABS=-273.15)
.MODEL R_RES_47 RES ( TCE=0 T_ABS=-273.15)
.MODEL R_RES_48 RES ( TCE=0 T_ABS=-273.15)
.MODEL R_RES_49 RES ( TCE=0 T_ABS=-273.15)
.MODEL R_RES_50 RES ( TCE=0 T_ABS=-273.15)
.MODEL R_RES_51 RES ( TCE=0 T_ABS=-273.15)
.MODEL R_RES_52 RES ( TCE=0 T_ABS=-273.15)
.MODEL R_RES_53 RES ( TCE=0 T_ABS=-273.15)
.MODEL R_RES_54 RES ( TCE=0 T_ABS=-273.15)
.MODEL R_RES_55 RES ( TCE=0 T_ABS=-273.15)
.MODEL R_RES_56 RES ( TCE=0 T_ABS=-273.15)
.MODEL R_RES_57 RES ( TCE=0 T_ABS=-273.15)
.MODEL R_RES_58 RES ( TCE=0 T_ABS=-273.15)
.MODEL R_RES_59 RES ( TCE=0 T_ABS=-273.15)
.MODEL R_RES_60 RES ( TCE=0 T_ABS=-273.15)
.MODEL R_RES_61 RES ( TCE=0 T_ABS=-273.15)
.MODEL R_RES_62 RES ( TCE=0 T_ABS=-273.15)
.MODEL R_RES_63 RES ( TCE=0 T_ABS=-273.15)
.MODEL R_RES_64 RES ( TCE=0 T_ABS=-273.15)
.MODEL R_RES_65 RES ( TCE=0 T_ABS=-273.15)
.MODEL R_RES_66 RES ( TCE=0 T_ABS=-273.15)
.MODEL R_RES_67 RES ( TCE=0 T_ABS=-273.15)
.MODEL R_RES_68 RES ( TCE=0 T_ABS=-273.15)
.MODEL R_RES_69 RES ( TCE=0 T_ABS=-273.15)
.MODEL R_RES_70 RES ( TCE=0 T_ABS=-273.15)
.MODEL R_RES_71 RES ( TCE=0 T_ABS=-273.15)
.MODEL R_RES_72 RES ( TCE=0 T_ABS=-273.15)
.MODEL R_RES_73 RES ( TCE=0 T_ABS=-273.15)
.MODEL R_RES_74 RES ( TCE=0 T_ABS=-273.15)
.MODEL R_RES_75 RES ( TCE=0 T_ABS=-273.15)
.MODEL R_RES_76 RES ( TCE=0 T_ABS=-273.15)
.MODEL R_RES_77 RES ( TCE=0 T_ABS=-273.15)
.MODEL R_RES_78 RES ( TCE=0 T_ABS=-273.15)
.MODEL R_RES_79 RES ( TCE=0 T_ABS=-273.15)
.MODEL R_RES_80 RES ( TCE=0 T_ABS=-273.15)
.MODEL R_RES_81 RES ( TCE=0 T_ABS=-273.15)
.MODEL R_RES_82 RES ( TCE=0 T_ABS=-273.15)
.MODEL R_RES_83 RES ( TCE=0 T_ABS=-273.15)
.MODEL R_RES_84 RES ( TCE=0 T_ABS=-273.15)
.MODEL R_RES_85 RES ( TCE=0 T_ABS=-273.15)
.MODEL R_RES_86 RES ( TCE=0 T_ABS=-273.15)
.MODEL R_RES_87 RES ( TCE=0 T_ABS=-273.15)
.MODEL R_RES_88 RES ( TCE=0 T_ABS=-273.15)
.MODEL R_RES_89 RES ( TCE=0 T_ABS=-273.15)
.MODEL R_RES_90 RES ( TCE=0 T_ABS=-273.15)
.MODEL R_RES_91 RES ( TCE=0 T_ABS=-273.15)
.MODEL R_RES_92 RES ( TCE=0 T_ABS=-273.15)
.MODEL R_RES_93 RES ( TCE=0 T_ABS=-273.15)
.MODEL R_RES_94 RES ( TCE=0 T_ABS=-273.15)
.MODEL R_RES_95 RES ( TCE=0 T_ABS=-273.15)
.MODEL R_RES_96 RES ( TCE=0 T_ABS=-273.15)
.MODEL R_RES_97 RES ( TCE=0 T_ABS=-273.15)
.MODEL R_RES_98 RES ( TCE=0 T_ABS=-273.15)
.MODEL R_RES_99 RES ( TCE=0 T_ABS=-273.15)
.MODEL R_RES_100 RES ( TCE=0 T_ABS=-273.15)
.MODEL R_RES_101 RES ( TCE=0 T_ABS=-273.15)
.MODEL R_RES_102 RES ( TCE=0 T_ABS=-273.15)
.MODEL R_RES_103 RES ( TCE=0 T_ABS=-273.15)
.MODEL R_RES_104 RES ( TCE=0 T_ABS=-273.15)
.MODEL R_RES_105 RES ( TCE=0 T_ABS=-273.15)
.MODEL R_RES_106 RES ( TCE=0 T_ABS=-273.15)
.MODEL R_RES_107 RES ( TCE=0 T_ABS=-273.15)
.MODEL R_RES_108 RES ( TCE=0 T_ABS=-273.15)
.MODEL R_RES_109 RES ( TCE=0 T_ABS=-273.15)
.MODEL R_RES_110 RES ( TCE=0 T_ABS=-273.15)
.MODEL R_RES_111 RES ( TCE=0 T_ABS=-273.15)
.ENDS OPA206
*
* CLAMP AMP - OVERLOAD AND GROSS CLAMP
.SUBCKT CLAMP_AMP_HI_0  VC+ VC- VIN COM VO+ VO-
*  PINS     CLAMP V+  CLAMP V-  VIN  COM   VOUT+  VOUT-
.PARAM G=10
* OUTPUT G(COM,0) WHEN CONDITION NOT MET
GVO+ COM VO+ VALUE = {IF(V(VIN,COM)>V(VC+,COM),((V(VIN,COM)-V(VC+,COM))*G),0)}
GVO- COM VO- VALUE = {IF(V(VIN,COM)<V(VC-,COM),((V(VC-,COM)-V(VIN,COM))*G),0)}
.ENDS
*
* VOLTAGE-CONTROLLED CURRENT SOURCE WITH LIMITS - GROSS CLAMP
.SUBCKT VCCS_LIM_GR_0  VC+ VC- IOUT+ IOUT-
.PARAM GAIN = 1
.PARAM IPOS = 90
.PARAM INEG = -90
G1 IOUT+ IOUT- VALUE={LIMIT(GAIN*V(VC+,VC-),INEG,IPOS)}
.ENDS
*
* VOLTAGE-CONTROLLED SOURCE WITH LIMITS - IOUT DRAW
.SUBCKT VCCS_LIMIT_IQ_0  VC+ VC- IOUT+ IOUT-
.PARAM GAIN = 1E-3
G1 IOUT- IOUT+ VALUE={IF( (V(VC+,VC-)<=0),0,GAIN*V(VC+,VC-) )}
.ENDS
*
* CLAMP AMP - CLAW AND CURRENT LIMIT CLAMP
.SUBCKT CLAMP_AMP_LO_0  VC+ VC- VIN COM VO+ VO-
*  PINS     CLAMP V+  CLAMP V-  VIN  COM   VOUT+  VOUT-
.PARAM G=1
* OUTPUT G(COM,0) WHEN CONDITION NOT MET
GVO+ COM VO+ VALUE = {IF(V(VIN,COM)>V(VC+,COM),((V(VIN,COM)-V(VC+,COM))*G),0)}
GVO- COM VO- VALUE = {IF(V(VIN,COM)<V(VC-,COM),((V(VC-,COM)-V(VIN,COM))*G),0)}
.ENDS
*
* VOLTAGE-CONTROLLED CURRENT SOURCE WITH LIMITS - CURRENT LIMIT CLAMP
.SUBCKT VCCS_LIM_4_0  VC+ VC- IOUT+ IOUT-
.PARAM GAIN = 1
.PARAM IPOS = 0.55
.PARAM INEG = -0.55
G1 IOUT+ IOUT- VALUE={LIMIT(GAIN*V(VC+,VC-),INEG,IPOS)}
.ENDS
*
* VOLTAGE-CONTROLLED CURRENT SOURCE (TABLE-DEFINED) - CLAW+
.SUBCKT VCCS_LIM_CLAW+_0  VC+ VC- IOUT+ IOUT-
G1 IOUT+ IOUT- TABLE {(V(VC+,VC-))} =
+(0, 1E-4)
+(5, 1.4E-4)
+(10, 2E-4)
+(15, 2.6E-4)
+(20, 3.2E-4)
+(23.5, 3.5E-4)
+(24, 2.51E-3)
+(24.5, 1.8E-2)
.ENDS
*
* VOLTAGE-CONTROLLED CURRENT SOURCE (TABLE-DEFINED) - CLAW-
.SUBCKT VCCS_LIM_CLAW-_0  VC+ VC- IOUT+ IOUT-
G1 IOUT+ IOUT- TABLE {(V(VC+,VC-))} =
+(0, 1E-4)
+(5, 1.4E-4)
+(10, 2E-4)
+(15, 2.6E-4)
+(20, 3.2E-4)
+(23.5, 3.5E-4)
+(24, 2.51E-3)
+(24.5, 1.8E-2)
.ENDS
*
* VOLTAGE-CONTROLLED CURRENT SOURCE WITH LIMITS - CLAW CLAMP
.SUBCKT VCCS_LIM_3_0  VC+ VC- IOUT+ IOUT-
.PARAM GAIN = 1
.PARAM IPOS = 0.250
.PARAM INEG = -0.250
G1 IOUT+ IOUT- VALUE={LIMIT(GAIN*V(VC+,VC-),INEG,IPOS)}
.ENDS
*
* OVERLOAD SENSE FOR ZO SWITCHES
.SUBCKT OL_SENSE_0  COM SW+ OLN  OLP
* PINS          COM SW+ OLN OLP
GSW+ COM SW+ VALUE = {IF((V(OLN,COM)>10E-3 | V(OLP,COM)>10E-3),1,0)}
.ENDS
*
* FEMT - INPUT CURRENT NOISE IN FA/RT-HZ
.SUBCKT FEMT_0  1 2
* INPUT VARIABLES
* SET UP 1/F NOISE
* FLWF = 1/F FREQUENCY IN HZ
.PARAM FLWF=0.1
* NLFF = CURRENT NOISE DENSITY AT 1/F FREQUENCY IN FA/RT(HZ)
.PARAM NLFF=1.08E3
* SET UP BROADBAND NOISE
* NVRF = BROADBAND CURRENT NOISE DENSITY IN FA/RT(HZ)
.PARAM NVRF=1.92E3
* CALCULATED VALUES
.PARAM GLFF={PWR(FLWF,0.25)*NLFF/1164}
.PARAM RNVF={1.184*PWR(NVRF,2)}
.MODEL DVNF D KF={PWR(FLWF,0.5)/1E11} IS=1.0E-16
* CIRCUIT CONNECTIONS
I1 0 7 10E-3
I2 0 8 10E-3
D1 7 0 DVNF
D2 8 0 DVNF
E1 3 6 7 8 {GLFF}
R1 3 0 1E9
R2 3 0 1E9
R3 3 6 1E9
E2 6 4 5 0 10
R4 5 0 {RNVF}
R5 5 0 {RNVF}
R6 3 4 1E9
R7 4 0 1E9
G1 1 2 3 4 1E-6
.ENDS
*
* VNSE - INPUT VOLTAGE NOISE IN NV/RT-HZ
.SUBCKT VNSE_0  1 2
* INPUT VARIABLES
* SET UP 1/F NOISE
* FLW = 1/F FREQUENCY IN HZ
.PARAM FLW=0.1
* NLF = VOLTAGE NOISE DENSITY AT 1/F FREQUENCY IN NV/RT(HZ)
.PARAM NLF=10.56
* SET UP BROADBAND NOISE
* NVR = BROADBAND VOLTAGE NOISE DENSITY IN NV/RT(HZ)
.PARAM NVR=8.17
* CALCULATED VALUES
.PARAM GLF={PWR(FLW,0.25)*NLF/1164}
.PARAM RNV={1.184*PWR(NVR,2)}
.MODEL DVN D KF={PWR(FLW,0.5)/1E11} IS=1.0E-16
* CIRCUIT CONNECTIONS
I1 0 7 10E-3
I2 0 8 10E-3
D1 7 0 DVN
D2 8 0 DVN
E1 3 6 7 8 {GLF}
R1 3 0 1E9
R2 3 0 1E9
R3 3 6 1E9
E2 6 4 5 0 10
R4 5 0 {RNV}
R5 5 0 {RNV}
R6 3 4 1E9
R7 4 0 1E9
E3 1 2 3 4 1
.ENDS
*
* VOLTAGE-CONTROLLED CURRENT SOURCE WITH EXTERNAL LIMITS - VCM CLAMP
.SUBCKT VCCS_EXT_LIM_0  VIN+ VIN- IOUT- IOUT+ VP+ VP-
.PARAM GAIN = 1
G1 IOUT+ IOUT- VALUE={LIMIT(GAIN*V(VIN+,VIN-),V(VP-,VIN-), V(VP+,VIN-))}
.ENDS
*
* VOLTAGE-CONTROLLED CURRENT SOURCE WITH LIMITS - AOL SECOND STAGE
.SUBCKT VCCS_LIM_2_0  VC+ VC- IOUT+ IOUT-
.PARAM GAIN = 1.0E-1
.PARAM IPOS = 43.1
.PARAM INEG = -43.1
G1 IOUT+ IOUT- VALUE={LIMIT(GAIN*V(VC+,VC-),INEG,IPOS)}
.ENDS
*
* VOLTAGE-CONTROLLED CURRENT SOURCE WITH LIMITS - AOL FIRST STAGE
.SUBCKT VCCS_LIM_1_0  VC+ VC- IOUT+ IOUT-
.PARAM GAIN = 2.3E-3
.PARAM IPOS = .5
.PARAM INEG = -.5
G1 IOUT+ IOUT- VALUE={LIMIT(GAIN*V(VC+,VC-),INEG,IPOS)}
.ENDS
*
* VOLTAGE-CONTROLLED CURRENT SOURCE WITH LIMITS - ZO OUTPUT
.SUBCKT VCCS_LIM_ZO_0  VC+ VC- IOUT+ IOUT-
.PARAM GAIN = 19.42
.PARAM IPOS = 17E3
.PARAM INEG = -17E3
G1 IOUT+ IOUT- VALUE={LIMIT(GAIN*V(VC+,VC-),INEG,IPOS)}
.ENDS