* CIP: NDA is required as of 08/29/2019
*****************************************************************************
* PTH08T250W
*****************************************************************************
* (C) Copyright 2015 Texas Instruments Incorporated. All rights reserved.                                            
*****************************************************************************
** This model is designed as an aid for customers of Texas Instruments.
** TI and its licensors and suppliers make no warranties, either expressed
** or implied, with respect to this model, including the warranties of 
** merchantability or fitness for a particular purpose.  The model is
** provided solely on an "as is" basis.  The entire risk as to its quality
** and performance is with the customer
*****************************************************************************
*
* This model is subject to change without notice. Texas Instruments
* Incorporated is not responsible for updating this model.
*
*****************************************************************************
*
** Released by: WEBENCH Design Center, Texas Instruments Inc.
* Part: PTH08T250W
* Date: 01JUN2015
* Model Type: TRANSIENT
* Simulator: PSPICE
* Simulator Version: 16.2.0.p001
* EVM Order Number: NA
* EVM Users Guide: NA
* Datasheet: SLTS278G–NOVEMBER 2010–REVISED MARCH 2009
*
* Model Version: Final 1.00
*
*****************************************************************************
*
* Updates:
*
* Final 1.00
* Release to Web.
*
*****************************************************************************
.SUBCKT PTH08T250W_TRANS AGND COMP GND SENSE+ SENSE- TT VI_0 VOUT VO_ADJ  
+ VI_1 VI_2 VI_3 TRACK INHIBIT_UVLO_N CLKIO SMARTSYNC CONFIG VO_1
+ SHARE GND_1 GND_2 GND_3
R_VI_1 VI_1 VI_0 1m
R_VI_2 VI_2 VI_0 1m
R_VI_3 VI_3 VI_0 1m
R_TRACKA TRACK 0 1MEG
R_TRACKB TRACK 0 1MEG
R_INHIBIT_UVLO_NA INHIBIT_UVLO_N 0 1MEG
R_INHIBIT_UVLO_NB INHIBIT_UVLO_N 0 1MEG
R_SHAREA SHARE 0 1MEG
R_SHAREB SHARE 0 1MEG
R_CLKIOA CLKIO 0 1MEG
R_CLKIOB CLKIO 0 1MEG
R_SMARTSYNCA SMARTSYNC 0 1MEG
R_SMARTSYNCB SMARTSYNC 0 1MEG
R_CONFIGA CONFIG 0 1MEG
R_CONFIGB CONFIG 0 1MEG
R_VO_1A VO_1 0 1MEG
R_VO_1B VO_1 0 1MEG
R_GND_1 GND_1 GND 1m
R_GND_2 GND_2 GND 1m
R_GND_3 GND_3 GND 1m
R_AGND_3 GND_3 AGND 1m
C_U1_C14         0 VI_0  10u  TC=0,0 
R_U1_R3         U1_N14583796 U1_N14583900  {1k} TC=0,0 
R_U1_R33         U1_N14589005 U1_N14588797  4.99 TC=0,0 
C_U1_C7         U1_N14583900 U1_N14583590  {0.022u}  TC=0,0 
C_U1_C504         0 VOUT  47u  TC=0,0 
R_U1_R39         SENSE+ VOUT  10  
R_U1_R18         U1_N14583590 U1_N14583668  16.5k TC=0,0 
R_U1_R48         0 0  1m  
R_U1_R34         U1_N14588715 VOUT  4.99 TC=0,0 
X_U1_U3         COMP U1_N14583668 U1_CAP_VALUE VARICAP
R_U1_R46         U1_SW1 U1_N14588797  2k TC=0,0 
C_U1_C8         N01532 U1_N14583920  {1u}  TC=0,0 
C_U1_C16         U1_N14588715 U1_N14589005  0.1u  TC=0,0 
R_U1_R36         U1_N14620395 U1_N14620469  4.99 TC=0,0 
R_U1_R21         N01532 SENSE+  {40.2k*2.5} TC=0,0 
C_U1_C24         SENSE- SENSE+  150p  TC=0,0 
R_U1_R37         U1_N14620399 VOUT  4.99 TC=0,0 
X_U1_S1    U1_N16615285 0 SENSE+ N01532 PTH08T250W_TOPLEVEL_S1 
C_U1_C17         U1_N14620399 U1_N14620395  0.1u  TC=0,0 
R_U1_R24         U1_N14584028 U1_N14583920  10k TC=0,0 
R_U1_RDCR1         U1_SW1 U1_N14588881  1.5m TC=0,0 
R_U1_R26         U1_BP5 U1_N14584028  10k TC=0,0 
X_U1_U2         U1_N14583920 U1_N14583796 U1_BP5 0 U1_N14583796 TLV2372
R_U1_R25         0 U1_N14584028  10k TC=0,0 
R_U1_RDCR2         U1_SW2 U1_N14620489  1.5m TC=0,0 
C_U1_C32         0 U1_SW1  2200p  TC=0,0 
C_U1_C12         0 U1_N14584028  {1u}  TC=0,0 
R_U1_R49         U1_SW2 U1_N14620469  2k TC=0,0 
C_U1_C23         SENSE- 0  1u  TC=0,0 
R_U1_R2         VO_ADJ U1_N14583590  6.49k TC=0,0 
C_U1_C22         SENSE+ VOUT  1u  
R_U1_R47         0 0  1m  
L_U1_L501         U1_N14588881 VOUT  1u  
R_U1_R40         SENSE- 0  10 TC=0,0 
R_U1_R1         U1_N14583590 U1_DIFFO  30.1k TC=0,0 
E_U1_U1_GAIN5         U1_DIFFO 0 VALUE {1 * V(U1_U1_N14695717)}
V_U1_U1_V32         U1_U1_N14540271 0 0.5
E_U1_U1_GAIN7         U1_U1_N14705197 0 VALUE {1 * V(U1_U1_DC1)}
E_U1_U1_GAIN6         U1_U1_N14695743 0 VALUE {1 * V(U1_U1_N14695739)}
E_U1_U1_SUM2         U1_U1_N145217601 0 VALUE 
+ {V(U1_U1_N14616960)+V(U1_U1_N145216862)}
D_U1_U1_D6         0 U1_U1_VE2 D_D3 
E_U1_U1_E7         U1_U1_N14541696 0 U1_U1_VREF 0 1
X_U1_U1_U12         U1_U1_N14695759 U1_U1_N14695749 U1_U1_N14695917 OP_AMP
+  PARAMS:  HLIMIT=15 RIN=10MEG BW=8MEG DC_GAIN=80 ROUT=1u LLIMIT=0 SRP=10  
+  SRM=10 
D_U1_U1_D5         0 U1_U1_VE1 D_D3 
E_U1_U1_E2         U1_U1_N14541688 0 U1_U1_N14541696 0 1
R_U1_U1_R135         U1_U1_N14524793 U1_U1_N14525605  1  
R_U1_U1_R136         U1_U1_N14525605 COMP  40  
R_U1_U1_R143         U1_U1_N145419981 U1_U1_N14541952  5k  
E_U1_U1_E3         U1_U1_N14518823 0 U1_U1_VREF 0 1
R_U1_U1_R132         U1_U1_N145217601 U1_U1_N14521714  5k  
R_U1_U1_R145         U1_U1_N14695823 U1_U1_N14695739  300  
X_U1_U1_U20         U1_U1_N14481242 0 U1_U1_N14524440 OP_AMP PARAMS:  HLIMIT=4
+  RIN=10MEG BW=12MEG DC_GAIN=90 ROUT=100 LLIMIT=0 SRP=10   SRM=10 
C_U1_U1_C76         U1_U1_N14541952 U1_U1_N14541776  10p  
C_U1_U1_C72         U1_U1_N14521714 U1_U1_N14521538  10p  
R_U1_U1_R138         U1_U1_N14541562 U1_U1_N14541596  1  
V_U1_U1_V31         U1_BP5 0 5
R_U1_U1_R168         SENSE+ U1_U1_N14695759  30k  
R_U1_U1_R137         COMP 0  80e6  
C_U1_U1_C75         U1_U1_N14541796 U1_N14620399  10p  
C_U1_U1_C77         U1_U1_N14695739 0  1n  
E_U1_U1_GAIN2         U1_U1_N14615910 0 VALUE {1.49 * V(U1_U1_CS2RIPPLE)}
C_U1_U1_C73         U1_U1_N14525605 0  1n  
C_U1_U1_C71         U1_U1_N14521558 U1_N14588715  10p  
R_U1_U1_R139         U1_U1_N14541596 COMP  100e6  
E_U1_U1_PWMVM_ABM2         U1_U1_PWMVM_FSV 0 VALUE { {FS}    }
E_U1_U1_PWMVM_L1_ABM4         U1_U1_PWMVM_L1_CLPN 0 VALUE {
+  (V(U1_U1_PWMVM_FSV))*100n    }
R_U1_U1_PWMVM_L1_Rdc         U1_U1_PWMVM_L1_DCX 0  10k TC=0,0 
G_U1_U1_PWMVM_L1_Gdabm         0 U1_U1_PWMVM_L1_DCX VALUE { (V(U1_U1_DUTY1) *
+  100u)    }
E_U1_U1_PWMVM_L1_ABM3         U1_U1_DC1 0 VALUE { (V(U1_U1_PWMVM_L1_DCX) )    }
X_U1_U1_PWMVM_L1_U19         U1_U1_PWMVM_L1_DCX U1_U1_PWMVM_L1_CLPP D_D1
E_U1_U1_PWMVM_L1_ABM5         U1_U1_PWMVM_L1_CLPP 0 VALUE {
+  (V(U1_U1_PWMVM_N14540114))    }
X_U1_U1_PWMVM_L1_U20         U1_U1_PWMVM_L1_CLPN U1_U1_PWMVM_L1_DCX D_D1
X_U1_U1_PWMVM_H1    U1_U1_PWMVM_CX U1_U1_PWMVM_N14543521 U1_U1_PWMVM_VM 0
+  PWMVM_U1_U1_PWMVM_H1 
G_U1_U1_PWMVM_GIap         VI_0 0 VALUE { (V(U1_U1_DC1) * V(U1_U1_PWMVM_VM)) 
+    }
V_U1_U1_PWMVM_L2_V3         U1_U1_PWMVM_L2_CLPN 0 0.1Vdc
G_U1_U1_PWMVM_L2_Gdabm         0 U1_U1_PWMVM_L2_D2CX VALUE {
+  (V(U1_U1_PWMVM_D2X) * 100u)    }
X_U1_U1_PWMVM_L2_U22         U1_U1_PWMVM_L2_CLPN U1_U1_PWMVM_L2_D2CX D_D1
X_U1_U1_PWMVM_L2_U21         U1_U1_PWMVM_L2_D2CX U1_U1_PWMVM_L2_CLPP D_D1
R_U1_U1_PWMVM_L2_Rdc1         U1_U1_PWMVM_L2_D2CX 0  10k TC=0,0 
E_U1_U1_PWMVM_L2_ABM7         U1_U1_PWMVM_L2_CLPP 0 VALUE { (1-V(U1_U1_DC1) )  
+   }
E_U1_U1_PWMVM_L2_ABM4         U1_U1_PWMVM_D2 0 VALUE { (V(U1_U1_PWMVM_L2_D2CX)
+  )    }
E_U1_U1_PWMVM_Evcp         U1_U1_PWMVM_CX 0 U1_U1_PWMVM_N14536508 0 1
V_U1_U1_PWMVM_V3         U1_U1_PWMVM_N14540114 0 {CLAMPH}
R_U1_U1_PWMVM_R1         U1_U1_PWMVM_N14543521 U1_SW1  3m TC=0,0 
E_U1_U1_PWMVM_ABM4         U1_U1_PWMVM_D2X 0 VALUE { (1 - V(U1_U1_DC1))    }
E_U1_U1_PWMVM_ABM3         U1_U1_PWMVM_N14536508 0 VALUE { V(U1_U1_DC1) *
+  V(VI_0,0)    }
E_U1_U1_ABM5         U1_U1_CS1RIPPLE 0 VALUE {
+  (V(VI_0)-V(U1_SW1))*V(U1_DIFFO)/(2k*0.1u*2*{FS}*V(VI_0))    }
R_U1_U1_R169         SENSE- U1_U1_N14695749  30k  
R_U1_U1_R141         U1_N14620395 U1_U1_N14541796  3k  
R_U1_U1_R144         0 U1_U1_N14541776  3k  
E_U1_U1_E5         U1_U1_N14524793 0 U1_U1_N14524440 0 1
E_U1_U1_GAIN1         U1_U1_N14616960 0 VALUE {1.49 * V(U1_U1_CS1RIPPLE)}
E_U1_U1_GAIN4         U1_U1_N14695823 0 VALUE {1 * V(U1_U1_N14695917)}
R_U1_U1_R131         U1_N14589005 U1_U1_N14521558  3k  
R_U1_U1_R133         0 U1_U1_N14521538  3k  
V_U1_U1_V29         U1_U1_N14496479 0 0.5
E_U1_U1_ABM3         U1_U1_CS2RIPPLE 0 VALUE {
+  (V(VI_0)-V(U1_SW2))*V(U1_DIFFO)/(2k*0.1u*2*{FS}*V(VI_0))    }
C_U1_U1_C74         U1_U1_N14541596 0  1n  
R_U1_U1_R170         U1_U1_N14695917 U1_U1_N14695749  30k  
R_U1_U1_R172         U1_U1_N14705197 U1_U1_DUTY_CYCLE  1MEG  
R_U1_U1_R142         U1_U1_VE2 COMP  15.8K  
R_U1_U1_R146         U1_U1_N14695743 U1_U1_N14695717  600  
E_U1_U1_SUM1         U1_U1_N145419981 0 VALUE 
+ {V(U1_U1_N14615910)+V(U1_U1_N145419242)}
R_U1_U1_R134         U1_U1_VE1 COMP  15.8K  
E_U1_U1_E1         U1_U1_N14481242 0 U1_U1_N14518823 U1_N14583590 1
R_U1_U1_R171         U1_U1_N14695759 0  30k  
G_U1_U1_G2         U1_U1_VE2 0 U1_U1_N14541952 U1_U1_N14541776 {553e-6}
G_U1_U1_G1         U1_U1_VE1 0 U1_U1_N14521714 U1_U1_N14521538 {553e-6}
R_U1_U1_R140         COMP 0  80e6  
E_U1_U1_PWMVM1_ABM2         U1_U1_PWMVM1_FSV 0 VALUE { {FS}    }
E_U1_U1_PWMVM1_L1_ABM4         U1_U1_PWMVM1_L1_CLPN 0 VALUE {
+  (V(U1_U1_PWMVM1_FSV))*100n    }
R_U1_U1_PWMVM1_L1_Rdc         U1_U1_PWMVM1_L1_DCX 0  10k TC=0,0 
G_U1_U1_PWMVM1_L1_Gdabm         0 U1_U1_PWMVM1_L1_DCX VALUE { (V(U1_U1_DUTY2) *
+  100u)    }
E_U1_U1_PWMVM1_L1_ABM3         U1_U1_DC2 0 VALUE { (V(U1_U1_PWMVM1_L1_DCX) )   
+  }
X_U1_U1_PWMVM1_L1_U19         U1_U1_PWMVM1_L1_DCX U1_U1_PWMVM1_L1_CLPP D_D1
E_U1_U1_PWMVM1_L1_ABM5         U1_U1_PWMVM1_L1_CLPP 0 VALUE {
+  (V(U1_U1_PWMVM1_N14540114))    }
X_U1_U1_PWMVM1_L1_U20         U1_U1_PWMVM1_L1_CLPN U1_U1_PWMVM1_L1_DCX D_D1
X_U1_U1_PWMVM1_H1    U1_U1_PWMVM1_CX U1_U1_PWMVM1_N14543521 U1_U1_PWMVM1_VM 0
+  PWMVM_U1_U1_PWMVM1_H1 
G_U1_U1_PWMVM1_GIap         VI_0 0 VALUE { (V(U1_U1_DC2) *
+  V(U1_U1_PWMVM1_VM))    }
V_U1_U1_PWMVM1_L2_V3         U1_U1_PWMVM1_L2_CLPN 0 0.1Vdc
G_U1_U1_PWMVM1_L2_Gdabm         0 U1_U1_PWMVM1_L2_D2CX VALUE {
+  (V(U1_U1_PWMVM1_D2X) * 100u)    }
X_U1_U1_PWMVM1_L2_U22         U1_U1_PWMVM1_L2_CLPN U1_U1_PWMVM1_L2_D2CX D_D1
X_U1_U1_PWMVM1_L2_U21         U1_U1_PWMVM1_L2_D2CX U1_U1_PWMVM1_L2_CLPP D_D1
R_U1_U1_PWMVM1_L2_Rdc1         U1_U1_PWMVM1_L2_D2CX 0  10k TC=0,0 
E_U1_U1_PWMVM1_L2_ABM7         U1_U1_PWMVM1_L2_CLPP 0 VALUE { (1-V(U1_U1_DC2) )
+     }
E_U1_U1_PWMVM1_L2_ABM4         U1_U1_PWMVM1_D2 0 VALUE {
+  (V(U1_U1_PWMVM1_L2_D2CX) )    }
E_U1_U1_PWMVM1_Evcp         U1_U1_PWMVM1_CX 0 U1_U1_PWMVM1_N14536508 0 1
V_U1_U1_PWMVM1_V3         U1_U1_PWMVM1_N14540114 0 {CLAMPH}
R_U1_U1_PWMVM1_R1         U1_U1_PWMVM1_N14543521 U1_SW2  3m TC=0,0 
E_U1_U1_PWMVM1_ABM4         U1_U1_PWMVM1_D2X 0 VALUE { (1 - V(U1_U1_DC2))    }
E_U1_U1_PWMVM1_ABM3         U1_U1_PWMVM1_N14536508 0 VALUE { V(U1_U1_DC2) *
+  V(VI_0,0)    }
E_U1_U1_ABM1         U1_U1_DUTY1 0 VALUE { (1*
+  ((V(U1_U1_VE1))/V(U1_U1_N14496479)))    }
C_U1_U1_C78         U1_U1_N14695717 0  1n  
X_U1_U1_U21         U1_U1_N14541688 0 U1_U1_N14541524 OP_AMP PARAMS:  HLIMIT=4
+  RIN=10MEG BW=12MEG DC_GAIN=90 ROUT=100 LLIMIT=0 SRP=10   SRM=10 
C_U1_U1_C79         0 U1_U1_DUTY_CYCLE  1  
E_U1_U1_ABM2         U1_U1_DUTY2 0 VALUE { (1*
+  ((V(U1_U1_VE2))/V(U1_U1_N14540271)))    }
V_U1_U1_V30         U1_U1_VREF 0 0.7
E_U1_U1_E8         U1_U1_N145419242 U1_U1_N14541776 U1_U1_N14541796
+  U1_N14620399 1.49
E_U1_U1_E4         U1_U1_N145216862 U1_U1_N14521538 U1_U1_N14521558
+  U1_N14588715 {1.49}
E_U1_U1_E6         U1_U1_N14541562 0 U1_U1_N14541524 0 1
C_U1_C6         U1_N14583590 COMP  {150p}  TC=0,0 
E_U1_ABM1         U1_CAP_VALUE 0 VALUE {
+  330p*(V(U1_DIFFO)*V(VI_0)*-0.0215+0.4042*V(U1_DIFFO)+0.523)    }
C_U1_C503         0 VOUT  {47u*0}  TC=0,0 
L_U1_L502         U1_N14620489 VOUT  1u  
V_U1_V1         U1_N16615285 0  
+PULSE 0 1 1u 10n 
.PARAM  l=1u fs=600k clamph=90
.ENDS PTH08T250W_TRANS
*$
.subckt PWMVM_U1_U1_PWMVM_H1 1 2 3 4  
H_U1_U1_PWMVM_H1         3 4 VH_U1_U1_PWMVM_H1 1
VH_U1_U1_PWMVM_H1         1 2 0V
.ends PWMVM_U1_U1_PWMVM_H1
*$
.subckt PWMVM_U1_U1_PWMVM1_H1 1 2 3 4  
H_U1_U1_PWMVM1_H1         3 4 VH_U1_U1_PWMVM1_H1 1
VH_U1_U1_PWMVM1_H1         1 2 0V
.ends PWMVM_U1_U1_PWMVM1_H1
*$
.subckt PTH08T250W_TOPLEVEL_S1 1 2 3 4  
S_S1         3 4 1 2 _S1
RS_S1         1 2 1G
.MODEL         _S1 VSWITCH Roff=1e9 Ron={40.2k*1.6667} Voff=0.2 Von=0.8
.ends PTH08T250W_TOPLEVEL_S1
*$
.subckt PWMVM_U1_PWMVM_H1 1 2 3 4  
H_U1_PWMVM_H1         3 4 VH_U1_PWMVM_H1 1
VH_U1_PWMVM_H1         1 2 0V
.ends PWMVM_U1_PWMVM_H1
*$
.subckt PWMVM_U1_PWMVM1_H1 1 2 3 4  
H_U1_PWMVM1_H1         3 4 VH_U1_PWMVM1_H1 1
VH_U1_PWMVM1_H1         1 2 0V
.ends PWMVM_U1_PWMVM1_H1
*$
.SUBCKT TLV2372 3 4 6 2 1
VEN 5 2 2
REN 5 2 1E12
Q20 7 8 9 QLN
R3 10 11 2
R4 12 11 2
R10 8 13 1E3
R11 14 15 1E3
R12 16 6 4
R13 2 17 4
R16 18 19 200
R17 20 21 4
R18 9 22 4
D5 23 6 DD
D6 2 23 DD
D7 24 0 DIN
D8 25 0 DIN
I8 0 24 0.1E-3
I9 0 25 0.1E-3
E2 9 0 2 0 1
E3 21 0 6 0 1
D9 26 0 DVN
D10 27 0 DVN
I10 0 26 0.1E-3
I11 0 27 0.1E-3
E4 28 4 26 27 0.025
G2 29 4 24 25 2.9E-7
R22 2 6 100E6
E5 30 0 21 0 1
E6 31 0 9 0 1
E7 32 0 33 0 1
R30 30 34 1E5
R31 31 35 1E5
R32 32 36 1E5
R33 0 34 10
R34 0 35 10
R35 0 36 10
E10 37 3 36 0 0.01
R36 38 33 1E3
R37 33 39 1E3
C6 30 34 0.2E-12
C7 31 35 0.2E-12
C8 32 36 0.2E-12
E11 40 37 35 0 0.8
E12 29 40 34 0 0.8
E14 41 9 21 9 0.5
D11 18 21 DD
D12 9 18 DD
M1 42 43 17 17 NOUT L=3U W=80U
M2 44 45 16 16 POUT L=3U W=80U
M3 46 46 20 20 POUT L=3U W=80U
M4 47 48 10 10 PIN L=3U W=110U
M5 49 50 12 12 PIN L=3U W=110U
M8 51 51 22 22 NOUT L=3U W=80U
R43 52 45 100
R44 53 43 100
G3 18 41 54 41 0.2E-3
R45 41 18 120E6
C12 19 23 10E-12
R46 9 47 2E3
R47 9 49 2E3
C13 47 49 1E-12
C14 29 0 4E-12
C15 28 0 4E-12
C16 23 0 0.5E-12
D13 43 7 DD
D14 55 45 DD
Q15 55 15 21 QLP
V18 29 56 0
M19 57 58 21 21 PIN L=6U W=500U
E17 39 0 29 0 1
E18 38 0 4 0 1
M23 58 58 21 21 PIN L=6U W=500U
V21 57 11 0
R59 23 44 1
R60 42 23 1
J1 59 29 59 JNC
J2 59 28 59 JNC
J3 28 60 28 JNC
J4 29 60 29 JNC
C21 29 61 2E-12
E20 62 41 49 47 1
R62 62 54 1E4
C23 54 41 0.1E-12
G7 63 41 18 41 -1E-3
G8 41 64 18 41 1E-3
G9 41 65 51 9 1E-3
G10 66 41 21 46 1E-3
D17 66 63 DD
D18 64 65 DD
R66 63 66 100E6
R67 65 64 100E6
R68 66 21 1E3
R69 9 65 1E3
E23 21 52 21 66 1
E24 53 9 65 9 1
R70 64 41 1E6
R71 65 41 1E6
R72 41 66 1E6
R73 41 63 1E6
G11 6 2 67 0 315E-6
R75 40 29 1E9
R76 37 40 1E9
R77 3 37 1E9
R78 4 28 1E9
R79 41 54 1E9
R81 52 21 1E9
R82 9 53 1E9
R83 33 0 1E9
G14 58 9 67 0 55U
G15 46 51 67 0 80U
E48 68 18 67 0 30
E49 69 41 67 0 -30
V49 70 69 15
V50 71 68 -15
R127 68 0 1E12
R128 69 0 1E12
M41 41 71 18 72 PSW L=1.5U W=150U
M42 18 70 41 73 NSW L=1.5U
R129 72 0 1E12
R130 73 0 1E12
M43 74 5 9 9 NEN L=3U W=300U
M44 75 76 9 9 NEN L=3U W=3000U
R131 74 21 1E4
R132 75 77 1E6
V51 77 9 1
M45 78 78 21 21 PEN L=6U W=60U
M46 5 78 21 21 PEN L=6U W=60U
I20 78 9 0.1E-6
C26 5 0 1E-12
E50 67 0 79 9 1
V52 75 79 1.111E-6
R133 9 79 1E12
C32 21 74 3E-15
C33 77 75 3E-15
I21 6 2 30E-6
L1 23 1 4E-9
R150 23 1 400
V78 21 59 0
V79 60 9 0
R155 46 21 1E8
R156 9 51 1E8
R157 17 43 1E8
R158 16 45 1E8
RG1 0 67 1E9
R159 61 28 100
R225 50 28 25E3
R226 48 56 25E3
M48 80 81 2 2 NIQS L=3U W=1000U
R297 80 6 61.5E3
E94 81 2 67 0 2
M49 82 74 9 9 NEN L=3U W=300U
M50 76 82 9 9 NEN L=3U W=300U
R298 82 77 1E4
R299 76 77 1E4
C35 77 82 40E-12
M51 83 84 85 85 NIN L=3U W=110U
M52 86 87 88 88 NIN L=3U W=110U
R300 89 85 2
R301 89 88 2
R302 83 21 2E3
R303 86 21 2E3
C36 83 86 1E-12
G36 18 41 90 41 0.2E-3
R304 41 90 1E9
C37 90 41 0.1E-12
E97 91 41 86 83 1
R305 91 90 1E4
V115 92 56 1E-3
R306 28 87 25E3
R307 92 84 25E3
M53 93 94 95 95 PIN L=6U W=500U
R308 95 57 2E3
V116 21 94 1.25
M54 93 93 9 9 NIN L=3U W=500U
M55 89 93 9 9 NIN L=3U W=500U
E98 21 14 6 16 1
E99 13 9 17 2 1
C105 77 76 130E-12
R233 78 21 1E12
R334 93 9 1E12
R335 58 21 1E12
R336 94 21 1E12
R337 2 81 1E12
G37 28 0 96 0 6.6E-12
I48 28 0 1E-12
I49 0 97 1E-3
D46 97 0 DD
V119 97 98 0.7
R633 0 98 1E6
E100 99 0 98 0 -571
R634 0 99 1E6
D47 100 96 DD
V120 99 100 83.5
G38 29 0 96 0 6.6E-12
I50 29 0 1E-12
R635 0 96 1E6
R636 96 100 1E11
.MODEL DVN D KF=8E-12 IS=1E-16
.MODEL DD D
.MODEL DIN D
.MODEL QLN NPN
.MODEL QLP PNP
.MODEL JNC NJF
.MODEL POUT PMOS KP=200U VTO=-0.7
.MODEL NOUT NMOS KP=200U VTO=0.7
.MODEL PIN PMOS KP=200U VTO=-0.7
.MODEL NIN NMOS KP=200U VTO=0.7
.MODEL NIQS NMOS KP=200U VTO=0.7 IS=1E-18
.MODEL NEN NMOS KP=200U VTO=0.5 IS=1E-18
.MODEL PEN PMOS KP=200U VTO=-0.7 IS=1E-18
.MODEL PSW PMOS KP=200U VTO=-7.5 IS=1E-18
.MODEL NSW NMOS KP=200U VTO=7.5 IS=1E-18
.ENDS TLV2372
*$
.SUBCKT OP_AMP P M OUT 
+ PARAMs:  Hlimit=5 Rin=10Meg BW=18Meg DC_Gain=100 Rout=100 Llimit=0 SRP=1 SRM=1
R_Rin         P M  {Rin}
E_E1          5 0 M P {-Gain}
E_LIMIT2      6 0 VALUE {LIMIT(V(5), {-Abs(SRM)*Ca*1Meg+V(1)/Ra},
+                 {SRP*Ca*1Meg+V(1)/Ra})}
G_G2          1 0 6 0 -1
R_Ra          0 1  {Ra} 
C_Ca          0 1  {Ca}   
E_LIMIT1      2 0 VALUE {LIMIT(V(1),{Llimit},{Hlimit})}
V_VL          3 0 {Llimit+200m}
V_VH          4 0 {Hlimit-200m}
D_D1          3 1 Dideal 
D_D2          1 4 Dideal 
R_Rout        OUT 2  {Rout}
.model Dideal D Is=1e-10 Cjo=.01pF Rs=1m  N=1
.PARAM  Ra=1k   Ca={exp(DC_gain*log(10)/20)/(2*3.14159*BW*Ra)} 
+ Gain={exp(DC_gain*log(10)/20)/Ra} 
.ENDS OP_AMP
*$
.SUBCKT CESR IN OUT
+ PARAMs:  C=100u ESR=0.01 X=1
C	IN 1  {C*X}
RESR	1 OUT {ESR/X}
.ENDS CESR
*$
.SUBCKT WB_CAP_TANTALUM 13 2 PARAMS: X=2
C2 13 12 {85.16u*X}
C3 13 11 {42.58u*X}
C4 13 3 {21.29u*X}
C5 13 4 {10.65u*X}
R1 4 5 {7.5e-3*2/(0.4545*X+5.091)}
R2 3 6 {5.4e-3*2/(0.4545*X+5.091)}
R3 11 7 {10.5e-3*2/(0.4545*X+5.091)}
R4 12 8 {13.92e-3*2/(0.4545*X+5.091)}
C6 13 9 {170.32u*X}
R5 13 0 {1MEG/(0.4545*X+5.091)}
R6 9 10 {37.5m*2/(0.4545*X+5.091)}
L1 5 2 {8n/X}
L2 6 2 {8n/X}
L3 7 2 {8n/X}
L4 8 2 {8n/X}
L5 10 2 {8n/X}
R8 2 0 {1MEG/X}
.ENDS
*$
.SUBCKT VDCAP 1 2 C
R1 1 3 1u
VC 3 4
EBC 4 2 Value = { (1/v(c))*v(int) }
GINT 0 INT Value = { I(VC) }
CINT INT 0 1
Rdum INT 0 10E10
.ENDS
*$
.SUBCKT VARICAP 1 2 CTRL
R1 1 3 1u
VC 3 4
EBC 4 2 Value = { (1/v(ctrl))*v(int) }
GINT 0 INT Value = { I(VC) }
CINT INT 0 1
Rdum INT 0 10E10
.ENDS
*$
.SUBCKT D_D1 1 2
D1 1 2 DD1
.MODEL DD1 D( IS=1e-15 TT=10p Rs=0.05 N=.0001 )
.ENDS D_D1
*$
.subckt d_d 1 2
d1 1 2 dd
.model dd d
+ is=1e-015
+ n=0.01
+ tt=1e-011
.ends d_d
*$
.MODEL D_D3 D( IS=1e-15 TT=10p Rs=0.05 N=.0001 )
