* REF3333
*****************************************************************************
* (C) Copyright 2011 Texas Instruments Incorporated. All rights reserved.                                            
*****************************************************************************
** This model is designed as an aid for customers of Texas Instruments.
** TI and its licensors and suppliers make no warranties, either expressed
** or implied, with respect to this model, including the warranties of 
** merchantability or fitness for a particular purpose.  The model is
** provided solely on an "as is" basis.  The entire risk as to its quality
** and performance is with the customer.
*****************************************************************************
*
* This model is subject to change without notice. Texas Instruments
* Incorporated is not responsible for updating this model.
*
*****************************************************************************
*
** Released by: Analog eLab Design Center, Texas Instruments Inc.
* Part: REF3333
* Date: 10MAY2011
* Model Type: ALL IN ONE
* Simulator: PSPICE
* Simulator Version: 16.0.0.p001
* EVM Order Number: N/A
* EVM Users Guide: N/A
* Datasheet: SBOS392A–AUGUST 2007–REVISED SEPTEMBER 2007
*
* Model Version: 1.0
*
*****************************************************************************
*
* Updates:
*
* Version 1.0 : 
* Release to Web
*
*****************************************************************************
* BEGIN MODEL REF3333
* MODEL FEATURES INCLUDE VO, VO TEMPCO, IQ, IQ VS VIN,
* IQ TEMPCO, LOAD REGULATION, LINE REGULATION, LOAD
* TRANSIENT RESPONSE, LINE TRANSIENT RESPONSE, PSRR
* VS FREQUENCY, OUTPUT VOLTAGE NOISE VS FREQUENCY,
* OUTPUT IMPEDANCE VS FREQUENCY, DROPOUT VOLTAGE VS
* LOAD AND TEMPERATURE, OUTPUT CURRENT LIMIT, NOMINAL
* RESPONSE TO LOAD CAPACITANCE, AND START-UP TIME
* DOMAIN RESPONSE.
* NOTE: VO MAY BE ADJUSTED SLIGHTLY BY VARYING R122
* IN THE FIRST LINE OF THE SUBCIRCUIT LISTING BELOW.
* THIS CHANGES THE GAIN APPLIED BETWEEN THE INTERNAL
* 1.2 VOLT REFERENCE AND THE OUTPUT VOLTAGE.
* PINOUT ORDER IN OUT GND
* PINOUT ORDER  1  2   3
.SUBCKT REF3333 1 2 3
R122 25 2 7.43775E5
E26 71 2 81 0 0.08
E27 2 72 81 0 0.08
V26 80 81 0.25
Q21 4 5 6 Q
R80 7 8 2
R81 9 8 2
R82 5 10 1E3
R83 11 12 1E3
R84 13 1 6
R85 3 14 6
R86 15 16 2E6
R87 17 18 6
R88 6 19 6
D6 2 1 DD
D7 3 2 DD
D8 20 0 DIN
D9 21 0 DIN
I25 0 20 0.1E-3
I26 0 21 0.1E-3
E3 6 0 3 0 1
E4 18 0 1 0 1
D10 22 0 DVN
D11 23 0 DVN
I27 0 22 0.2E-6
I28 0 23 0.2E-6
E5 24 25 22 23 7
G3 26 25 20 21 2.8E-17
R89 27 28 100
E6 29 0 18 0 1
E7 30 0 6 0 1
E8 31 0 32 0 1
R90 29 33 1E6
R91 30 34 1E6
R92 31 35 1E6
R93 0 33 100
R94 0 34 100
R95 0 35 100
E11 36 27 35 0 0.15E-6
R96 37 32 1E3
R97 32 38 1E3
C26 29 33 1E-12
C27 30 34 1E-12
C28 31 35 1E-12
E12 39 36 34 0 0.15E-6
E13 40 39 33 0 0.14
E15 41 6 18 6 0.5
D12 42 18 DD
D13 6 43 DD
M2 44 45 14 14 NOUT L=3U W=1250U
M3 46 47 13 13 POUT L=3U W=1250U
M4 48 48 17 17 POUT L=3U W=1250U
M5 49 50 7 7 HVP L=3U W=40U
M6 51 52 9 9 HVP L=3U W=40U
M9 53 53 19 19 NOUT L=3U W=1250U
R98 54 47 100
R99 55 45 100
G4 15 41 56 41 2E-4
R100 41 15 5.2E9
C29 16 57 3.5P
R101 6 49 2.05E3
R102 6 51 2.05E3
C30 49 51 4E-12
C31 26 0 2E-12
C32 52 0 2E-12
D14 45 4 DD
D15 58 47 DD
Q22 58 12 18 QP
V19 26 50 0
M17 59 60 61 61 HVN L=3U W=40U
R103 62 61 2
M18 63 52 64 64 HVN L=3U W=40U
R104 62 64 2
R105 59 18 2.05E3
R106 63 18 2.05E3
C33 59 63 4E-12
V20 50 60 0
M19 65 66 67 67 PIN L=6U W=500U
M20 68 69 18 18 PIN L=6U W=500U
V21 18 66 1
M22 62 65 6 6 NIN L=6U W=500U
M23 65 65 6 6 NIN L=6U W=500U
G7 15 41 70 41 2E-4
E18 38 0 26 6 1
E19 37 0 25 6 1
M24 69 69 18 18 PIN L=6U W=500U
I29 69 6 1E-6
V22 68 8 0
R107 71 46 1
R108 44 72 1
J2 18 26 18 JC
J3 18 52 18 JC
J4 52 6 52 JC
J5 26 6 26 JC
C34 26 52 2E-12
E20 73 41 63 59 1
R109 73 70 1E2
C35 70 41 1E-10
E21 74 41 51 49 1
R110 74 56 1E2
C36 56 41 1E-10
G8 75 41 15 41 -1E-3
G9 41 76 15 41 1E-3
G10 41 77 53 6 1E-3
G11 78 41 18 48 1E-3
D18 78 75 DD
D19 76 77 DD
R111 75 78 1E9
R112 77 76 1E9
R113 78 18 1E3
R114 6 77 1E3
E24 18 54 18 78 1
E25 55 6 77 6 1
R115 76 41 1E7
R116 77 41 1E7
R117 41 78 1E7
R118 41 75 1E7
C37 47 46 70E-15
C38 44 45 70E-15
R119 3 1 9E7
I30 0 79 1E-3
D21 79 0 DD
V25 79 80 0.655
R120 0 80 1E6
I31 1 3 1E-9
I32 26 0 1E-12
I33 52 0 1E-12
R121 67 68 6.5E3
R123 6 25 4.25E5
C39 25 2 0.5E-12
R124 15 57 1E12
E28 57 0 2 0 30
E29 10 6 14 3 4
E30 18 11 1 13 4
R125 82 83 1E6
M25 82 84 6 6 NSW L=3U W=50U
E31 28 6 82 6 1
E32 84 6 85 86 100
R126 86 18 1E6
C40 86 6 230E-12
V27 85 6 1.78
C41 82 6 1E-12
M26 87 88 6 6 NSW L=3U W=50U
E34 88 6 89 90 100
R127 90 18 1E6
C42 90 6 600E-12
V29 89 6 1.78
C43 87 6 1E-12
R129 91 87 1E6
M28 92 88 6 6 NSW L=3U W=50U
R131 92 91 1E6
V30 91 6 1
G14 48 53 92 6 1E-6
Q23 93 94 0 QA
I34 0 95 1E-3
R132 0 96 1.5E3
Q24 97 93 96 Q
Q25 98 97 0 Q
R133 93 99 1.7E2
R134 97 95 13.5E3
R135 99 95 6E3
Q26 98 100 101 QP
Q27 100 93 102 Q
Q28 100 100 103 QP
R136 0 102 2E3
R137 94 99 2E2
Q29 104 98 105 QP
Q30 104 93 106 Q
R138 0 106 1.1E3
Q31 105 104 0 Q
R139 104 107 3E3
C44 105 107 30E-12
R140 105 95 10
R141 103 95 1.5E3
R142 101 95 1.5E3
D38 108 109 DL
V146 109 0 4
R317 0 108 1E8
G55 94 0 108 0 7E-6
E35 110 0 95 0 1.02137
R318 0 110 1E4
V147 111 110 4.64
E36 83 6 111 0 2.05479E-1
R319 6 83 1E9
E37 26 40 80 0 1E-6
G56 1 3 80 0 -6E-6
R320 40 26 1E9
R321 39 40 1E9
R322 36 39 1E9
R323 27 36 1E9
R324 6 28 1E9
R325 6 88 1E9
R326 6 89 1E9
R327 6 85 1E9
R328 41 56 1E9
R329 41 70 1E9
R330 0 111 1E9
R331 0 81 1E9
E38 52 24 112 0 9E-3
R332 24 52 1E9
R333 25 24 1E9
R334 0 112 1
R335 0 112 1
V148 42 15 0
V149 15 43 0
R336 6 84 1E9
G57 69 6 87 91 -0.5E-6
.MODEL DVN D KF=1.05E-16 IS=1E-16
.MODEL JC NJF IS=1E-18
.MODEL DIN D
.MODEL POUT PMOS KP=60U VTO=-0.7
.MODEL NOUT NMOS KP=60U VTO=0.7
.MODEL PIN PMOS KP=200U VTO=-0.7
.MODEL NIN NMOS KP=200U VTO=0.7
.MODEL NSW NMOS KP=200U VTO=0.7 IS=1E-18
.MODEL HVP PMOS KP=2U VTO=-0.7
.MODEL HVN NMOS KP=2U VTO=0.7
.MODEL DD D
.MODEL Q NPN
.MODEL QA NPN IS=1.45E-17
.MODEL QP PNP
.MODEL DL D IS=0.95E-11 N=1.55 XTI=1.5
.ENDS
* END MODEL REF3333