* REF3233
*****************************************************************************
* (C) Copyright 2011 Texas Instruments Incorporated. All rights reserved.                                            
*****************************************************************************
** This model is designed as an aid for customers of Texas Instruments.
** TI and its licensors and suppliers make no warranties, either expressed
** or implied, with respect to this model, including the warranties of 
** merchantability or fitness for a particular purpose.  The model is
** provided solely on an "as is" basis.  The entire risk as to its quality
** and performance is with the customer.
*****************************************************************************
*
* This model is subject to change without notice. Texas Instruments
* Incorporated is not responsible for updating this model.
*
*****************************************************************************
*
** Released by: Analog eLab Design Center, Texas Instruments Inc.
* Part: REF3233
* Date: 06MAY2011
* Model Type: ALL IN ONE
* Simulator: PSPICE
* Simulator Version: 16.0.0.p001
* EVM Order Number: N/A
* EVM Users Guide: N/A
* Datasheet: SBVS058B -JUNE 2005 - REVISED FEBRUARY 2006
*
* Model Version: 1.0
*
*****************************************************************************
*
* Updates:
*
* Version 1.0 : 
* Release to Web
*
*****************************************************************************
* BEGIN MODEL REF3233
* BEGIN NOTES
* MODEL TEMP RANGE IS
*   -55 TO +125 DEG C.
* NOTE THAT THE MODEL IS
* FUNCTIONAL OVER THIS RANGE
* BUT NOT ALL PARAMETERS TRACK
* THOSE OF THE REAL PART
*  OUTPUT VOLTAGE TEMPERATURE
*  COEEFICIENT IS NOT THE SAME
*  SHAPE AS THAT OF THE PART
*  BUT IS LINEAR VS TEMPERATURE
*  W SLOPE OF 10.5 PPM / DEG C
* END NOTES
* BEGIN MODEL FEATURES
* OUTPUT VOLTAGE
* LINE REGULATION
* LOAD REGULATION
* PSRR VS FREQUENCY
* OUTPUT IMPEDANCE
* DEVICE ENABLE
* QUIESCENT CURRENT ENABLED
* QUIESCENT CURRENT SHUTDOWN
* LINE TRANSIENT RESPONSE
* LOAD TRANSIENT RESPONSE
* OUTPUT CURRENT FLOWING
*   THROUGH SUPPLY
* OUTPUT CURRENT LIMIT
* STEP RESPONSE AT START-UP
* OUTPUT VOLTAGE NOISE VS FREQ
* DROPOUT VOLTAGE
* END MODEL FEATURES
* PINOUT ORDER GNDF GNDS EN IN OUTS OUTF
* PINOUT ORDER   1    2   3  4   5    6
.SUBCKT REF3233 1 2 3 4 5 6
R77 212 5 218.770E3
Q20 191 192 193 QLN
R3 194 195 2
R4 196 195 2
R10 197 192 100
R11 198 199 100
R12 200 4 1.56
R13 1 201 1.56
R16 202 203 6E6
R17 204 205 1.56
R18 193 206 1.56
D7 207 0 DIN
D8 208 0 DIN
I8 0 207 0.1E-3
I9 0 208 0.1E-3
E2 193 0 1 0 1
E3 205 0 4 0 1
D9 209 0 DVN
D10 210 0 DVN
I10 0 209 0.2E-6
I11 0 210 0.2E-6
E4 211 212 209 210 2.3
G2 213 212 207 208 2.8E-7
R28 214 215 10E3
E5 216 1 205 1 1
E6 217 1 193 1 1
E7 218 1 219 1 1
R30 216 220 1E6
R31 217 221 1E6
R32 218 222 1E6
R33 1 220 100
R34 1 221 100
R35 1 222 100
E10 223 224 222 1 0.34
R36 225 219 1E3
R37 219 226 1E3
C6 216 220 20E-12
C7 217 221 0.2E-12
C8 218 222 2E-12
E11 227 223 221 1 0.15
E12 213 227 220 1 0.4
E14 228 193 205 193 0.5
D11 202 205 DD
D12 193 202 DD
M1 229 230 201 201 NOUT L=3U W=5000U
M2 231 232 200 200 POUT L=3U W=5000U
M3 233 233 204 204 POUT L=3U W=5000U
M4 234 235 194 194 HVP L=3U W=300U
M5 236 237 196 196 HVP L=3U W=300U
M8 238 238 206 206 NOUT L=3U W=5000U
R43 239 232 100
R44 240 230 100
G3 202 228 241 228 0.2E-5
R45 228 202 6E9
C12 203 6 1.35E-12
R46 193 234 2.05E3
R47 193 236 2.05E3
C13 234 236 1E-12
C14 213 0 4.5E-12
C15 211 0 4.5E-12
C16 6 0 10E-12
D13 230 191 DD
D14 242 232 DD
Q15 242 198 205 QLP
V18 213 243 0
M16 244 245 246 246 HVN L=3U W=300U
R53 247 246 2
M17 248 249 250 250 HVN L=3U W=300U
R54 247 250 2
R55 244 205 2.05E3
R56 248 205 2.05E3
C20 244 248 1E-12
V19 243 251 0
M18 252 253 254 254 PIN L=6U W=500U
M19 255 256 205 205 PIN L=6U W=500U
V20 205 253 1
M21 247 252 193 193 NIN L=6U W=500U
M22 252 252 193 193 NIN L=6U W=500U
G6 202 228 257 228 0.2E-5
E17 226 190 213 1 1
E18 225 190 212 1 1
M23 256 256 205 205 PIN L=6U W=500U
V21 255 195 0
R59 6 231 5
R60 229 6 5
J1 205 213 205 JC
J2 205 211 205 JC
J3 211 193 211 JC
J4 213 193 213 JC
C21 213 211 3.5E-12
E19 258 228 248 244 1
R61 258 257 10E3
C22 257 228 1E-12
E20 259 228 236 234 1
R62 259 241 10E3
C23 241 228 1E-12
G7 260 228 202 228 -1E-3
G8 228 261 202 228 1E-3
G9 228 262 238 193 1E-3
G10 263 228 205 233 1E-3
D17 263 260 DD
D18 261 262 DD
R66 260 263 100E6
R67 262 261 100E6
R68 263 205 1E3
R69 193 262 1E3
E23 205 239 205 263 1
E24 240 193 262 193 1
R70 261 228 1E6
R71 262 228 1E6
R72 228 263 1E6
R73 228 260 1E6
V23 264 190 1.2
C27 232 231 70E-15
C28 229 230 70E-15
I22 213 0 1E-12
I23 211 0 1E-12
R76 254 255 6.5E3
R78 2 212 125E3
E25 205 199 4 200 17
E26 197 1 201 1 17
C29 212 265 5E-12
R79 265 5 500
C30 214 190 10E-12
M24 266 267 190 190 HTX L=3U W=300U
R80 266 268 1E5
M25 269 266 190 190 HTR L=3U W=30U
R81 269 268 1E6
V25 268 190 5
C31 269 190 30E-12
M26 270 269 190 190 HTS L=3U W=30U
R82 270 268 1E6
M27 214 270 190 190 HTR L=3U W=3000U
M28 202 270 228 228 HTR L=3U W=3000U
M29 271 270 190 190 HTR L=3U W=3000U
E28 215 264 272 190 -7.2E-3
I24 190 273 1E-3
D21 273 190 DD
V27 273 272 0.65
R83 190 272 1E6
C32 202 6 0.3E-12
E29 267 190 205 1 1
R84 190 267 1E12
R85 190 267 1E12
R86 237 211 20E3
R87 243 235 20E3
R88 249 211 20E3
R89 245 251 20E3
R90 233 205 1E12
R91 193 238 1E12
R93 256 205 1E12
G14 256 193 97 0 45E-6
G15 233 238 97 0 5.5E-6
R94 271 5 1E9
M30 269 274 190 190 HTT L=3U W=3000U
M31 275 274 190 190 HTT L=3U W=3000U
V29 276 190 1
R95 275 276 1E6
V30 97 275 -14E-6
I25 277 1 100E-12
C33 3 0 3E-12
M32 277 277 4 4 PIN L=6U W=500U
M33 278 277 4 4 PIN L=6U W=500U
I27 4 1 0.1E-6
G16 4 1 97 0 82.9E-6
D22 278 3 DD
R97 227 213 1E9
R98 223 227 1E9
R99 224 223 1E9
R100 190 215 1E9
R103 190 97 1E9
M34 274 3 1 1 HTT L=3U W=3000U
R104 274 276 1E6
R105 277 4 1E12
E30 224 214 2 190 1
R108 1 279 1
E31 190 0 279 0 1
R109 279 0 1E12
D23 1 2 DG
D24 2 1 DG
.MODEL HTR NMOS KP=200U VTO=1.5 IS=1E-18
.MODEL HTS NMOS KP=200U VTO=2.7 IS=1E-18
.MODEL HTT NMOS KP=200U VTO=0.7 IS=1E-18
.MODEL HTX NMOS KP=200U VTO=0.7 IS=1E-18
.MODEL DVN D KF=1.05E-16 IS=1E-16
.MODEL DIN D
.MODEL DD D
.MODEL DG D RS=3
.MODEL JC NJF IS=1E-18
.MODEL QLN NPN
.MODEL QLP PNP
.MODEL POUT PMOS KP=200U VTO=-0.7 IS=1E-18
.MODEL NOUT NMOS KP=200U VTO=0.7 IS=1E-18
.MODEL PIN PMOS KP=200U VTO=-0.7 IS=1E-18
.MODEL NIN NMOS KP=200U VTO=0.7 IS=1E-18
.MODEL HVP PMOS KP=200U VTO=-0.7 IS=1E-18
.MODEL HVN NMOS KP=200U VTO=0.7 IS=1E-18
.ENDS
* END MODEL REF3233