* BEGIN MODEL REF3120
* BEGIN MODEL FEATURES
* OUTPUT VOLTAGE
* LINE REGULATION
* LOAD REGULATION
* PSRR VS FREQUENCY
* OUTPUT IMPEDANCE
* QUIESCENT CURRENT VS VCC
* QUIESCENT CURRENT VS TEMP
* LINE TRANSIENT RESPONSE
* LOAD TRANSIENT RESPONSE
* OUTPUT CURRENT FLOWING
*   THROUGH SUPPLY
* OUTPUT CURRENT LIMIT
* STEP RESPONSE AT START-UP
* OUTPUT VOLTAGE NOISE VS FREQ
* DROPOUT VOLTAGE
* MODEL TEMP RANGE IS
*   -40 TO +125 DEG C.
* NOTE THAT THE MODEL IS
* FUNCTIONAL OVER THIS RANGE
* BUT NOT ALL PARAMETERS TRACK
* THOSE OF THE REAL PART
* END MODEL FEATURES
* PINOUT ORDER IN OUT GND
* PINOUT ORDER  1  2   3
.SUBCKT REF3120 1 2 3
Q20 4 5 6 QLN
R3 7 8 2
R4 9 8 2
R10 10 5 100
R11 11 12 100
R12 13 1 1.56
R13 3 14 1.56
R16 P2 15 40E3
R17 16 17 1.56
R18 6 18 1.56
D5 2 1 DD
D6 3 2 DD
D7 19 0 DIN
D8 20 0 DIN
I8 0 19 0.1E-3
I9 0 20 0.1E-3
E2 6 0 3 0 1
E3 17 0 1 0 1
D9 21 0 DVN
D10 22 0 DVN
I10 0 21 0.2E-6
I11 0 22 0.2E-6
E4 23 24 21 22 2.3
G2 25 24 19 20 2.8E-7
R28 P3 26 10E3
E5 27 3 17 3 1
E6 28 3 6 3 1
E7 29 3 30 3 1
R30 27 31 1E6
R31 28 32 1E6
R32 29 33 1E6
R33 3 31 100
R34 3 32 100
R35 3 33 100
E10 34 P3 33 3 0.34
R36 35 30 1E3
R37 30 36 1E3
C6 27 31 20E-12
C7 28 32 0.2E-12
C8 29 33 2E-12
E11 37 34 32 3 0.15
E12 25 37 31 3 0.4
E14 38 6 17 6 0.5
D11 P2 17 DD
D12 6 P2 DD
M1 39 40 14 14 NOUT L=3U W=5000U
M2 41 42 13 13 POUT L=3U W=5000U
M3 43 43 16 16 POUT L=3U W=5000U
M4 44 45 7 7 HVP L=3U W=300U
M5 46 47 9 9 HVP L=3U W=300U
M8 48 48 18 18 NOUT L=3U W=5000U
R43 49 42 100
R44 50 40 100
G3 P2 38 51 38 0.2E-3
R45 38 P2 60E6
C12 15 2 270E-12
R46 6 44 2.05E3
R47 6 46 2.05E3
C13 44 46 1E-12
C14 25 0 4.5E-12
C15 23 0 4.5E-12
C16 2 0 1E-12
D13 40 4 DD
D14 52 42 DD
Q15 52 11 17 QLP
V18 25 53 0
M16 54 55 56 56 HVN L=3U W=300U
R53 57 56 2
M17 58 59 60 60 HVN L=3U W=300U
R54 57 60 2
R55 54 17 2.05E3
R56 58 17 2.05E3
C20 54 58 1E-12
V19 53 61 0
M18 62 63 64 64 PIN L=6U W=500U
M19 65 66 17 17 PIN L=6U W=500U
V20 17 63 1
M21 57 62 6 6 NIN L=6U W=500U
M22 62 62 6 6 NIN L=6U W=500U
G6 P2 38 67 38 0.2E-3
I14 43 48 5.5E-6
E17 36 0 25 3 1
E18 35 0 24 3 1
M23 66 66 17 17 PIN L=6U W=500U
I15 66 6 45E-6
V21 65 8 0
R59 2 41 2.8
R60 39 2 2.8
J1 17 25 17 JC
J2 17 23 17 JC
J3 23 6 23 JC
J4 25 6 25 JC
C21 25 23 3.5E-12
E19 68 38 58 54 1
R61 68 67 10E3
C22 67 38 1E-12
E20 69 38 46 44 1
R62 69 51 10E3
C23 51 38 1E-12
G7 70 38 P2 38 -1E-3
G8 38 71 P2 38 1E-3
G9 38 72 48 6 1E-3
G10 73 38 17 43 1E-3
D17 73 70 DD
D18 71 72 DD
R66 70 73 100E6
R67 72 71 100E6
R68 73 17 1E3
R69 6 72 1E3
E23 17 49 17 73 1
E24 50 6 72 6 1
R70 71 38 1E6
R71 72 38 1E6
R72 38 73 1E6
R73 38 70 1E6
V23 74 0 1.25
C27 42 41 70E-15
C28 39 40 70E-15
R74 3 1 10E6
G12 1 3 75 0 -95E-6
I20 0 76 1E-3
D20 76 0 DD
V24 76 75 0.71
R75 0 75 1E6
I21 1 3 92E-6
I22 25 0 1E-12
I23 23 0 1E-12
R76 64 65 6.5E3
R77 24 77 6.384E3
R78 0 24 10E3
E25 17 12 1 13 17
E26 10 3 14 3 17
C29 24 78 50E-12
R79 78 77 500
C30 P3 0 10E-12
M24 79 80 0 0 HTR L=3U W=30U
R80 79 81 1E5
M25 82 79 0 0 HTR L=3U W=30U
R81 82 81 1E6
V25 81 0 5
C31 82 0 500E-12
M26 83 82 0 0 HTS L=3U W=30U
R82 83 84 1E6
V26 84 0 5
M27 P3 83 0 0 HTR L=3U W=3000U
M28 P2 83 38 38 HTR L=3U W=3000U
E27 77 0 2 3 1
M29 2 83 0 0 HTR L=3U W=3000U
G13 1 3 1 3 -2E-6
E28 26 74 85 0 -7E-3
I24 0 86 1E-3
D21 86 0 DD
V27 86 85 0.65
R83 0 85 1E6
C32 P2 2 30E-12
E29 80 0 17 3 1
R84 0 80 1E12
R85 0 80 1E12
R86 47 23 20E3
R87 53 45 20E3
R88 59 23 20E3
R89 55 61 20E3
R90 43 17 1E12
R91 6 48 1E12
R93 66 17 1E12
.MODEL HTR NMOS KP=200U VTO=1.5 IS=1E-18
.MODEL HTS NMOS KP=200U VTO=2.7 IS=1E-18
.MODEL DVN D KF=1.05E-16 IS=1E-16
.MODEL DIN D
.MODEL DD D
.MODEL JC NJF IS=1E-18
.MODEL QLN NPN
.MODEL QLP PNP
.MODEL POUT PMOS KP=200U VTO=-0.7 IS=1E-18
.MODEL NOUT NMOS KP=200U VTO=0.7 IS=1E-18
.MODEL PIN PMOS KP=200U VTO=-0.7 IS=1E-18
.MODEL NIN NMOS KP=200U VTO=0.7 IS=1E-18
.MODEL HVP PMOS KP=200U VTO=-0.7 IS=1E-18
.MODEL HVN NMOS KP=200U VTO=0.7 IS=1E-18
.ENDS
* END MODEL REF3120
