* REF4132 2.5V
*****************************************************************************
* (C) Copyright 2019 Texas Instruments Incorporated. All rights reserved.   
*****************************************************************************
** This model is designed as an aid for customers of Texas Instruments.
** TI and its licensors and suppliers make no warranties, either expressed
** or implied, with respect to this model, including the warranties of
** merchantability or fitness for a particular purpose.  The model is
** provided solely on an "as is" basis.  The entire risk as to its quality
** and performance is with the customer
*****************************************************************************
*
* This model is subject to change without notice. Texas Instruments
* Incorporated is not responsible for updating this model.
*
*****************************************************************************
*
* Released by: Texas Instruments Inc.
* Part: REF4132 2.5V
* Date: 05/28/2020
* Model Type:  TRANSIENT
* Simulator: PSPICE
* Simulator Version: 17.4-2019
* Datasheet: SNAS794 – May 2020
*
* Model Version: 1.00
*
*****************************************************************************
.EXTERNAL OUTPUT VIN
.EXTERNAL OUTPUT EN
.EXTERNAL OUTPUT VREF
.EXTERNAL OUTPUT GND
.subckt REF4132_2V5 VIN EN VREF GND
E_U1_E4         VREF U1_N07140 U1_N07377 GND 1
X_U1_U4         U1_N02220 U1_N02234 DOUT AND2_BASIC_GEN_SAN_0 PARAMS:  VDD=1
+  VEE=0 VTH=0.5
E_U1_E2         U1_N06396 GND U1_N07742 GND 1
D_U1_D3         U1_N02234 U1_N02220 Dbreak 
D_U1_D4         U1_N07140 U1_N07133 Dbreak 
X_U1_U8         OUT2 OUTFINAL U1_N05935 AOL_0 
X_U1_U2         U1_N01371 VREF_DROPOUT U1_N02216 COMP_BASIC_GEN_1 PARAMS: 
+  VDD=1 VEE=0
C_U1_C5         GND OUT2  80n  TC=0,0 
C_U1_C4         GND U1_N02234  57.72m  TC=0,0 
E_U1_E3         U1_N06822 GND U1_N06460 GND 1
V_U1_V4         VREF_DROPOUT VDROPOUT 2.5
L_U1_L1         U1_N08272 U1_N08222  1meg  
X_U1_U5         ILOAD1 VDROPOUT DROPOUT_0 
X_U1_U16         DOUT GND GND VIN VCCS_IQ_0 
X_U1_U3         U1_N05383 U1_N07746 DOUT VCVS_LIMIT_1 
D_U1_D1         U1_N08075 GND Dbreak 
E_U1_E1         U1_N01371 GND VALUE { IF(V(U1_EN1)>0.5,V(VIN),0) }
X_U1_U1         EN U1_N00099 U1_N00201 U1_EN1 COMPHYS_BASIC_GEN_0 PARAMS: 
+  VDD=1 VSS=0 VTHRESH=0.5
R_U1_R1         U1_N02216 U1_N02220  1m TC=0,0 
X_U1_U15         VIN U1_N09764 PSR_0
X_U1_U10         U1_N06396 U1_N06460 vnse_0 PARAMS: 
E_U1_E5         U1_N07746 U1_N07742 U1_N08222 GND -1
R_U1_R2         U1_N02220 U1_N02234  10m TC=0,0 
I_U1_I2         U1_N07133 U1_N07140 DC 20m  
X_U1_U7         U1_N05383 GND ILOAD VCVS_LIMIT_0 
X_U1_U9         U1_N05935 OUTFINAL ILOAD VCCS_LIMIT_0 
X_U1_H2    OUTFINAL U1_N05127 ILOAD GND REF4132_2V5_U1_H2 
V_U1_V1         U1_N00099 GND 1.24
E_U1_E6         U1_N08272 GND VIN GND 0.638275u
R_U1_R4         EN U1_N08075  11.3meg TC=0,0 
R_U1_R3         U1_N06822 OUT2  1k TC=0,0 
V_U1_VHYST         U1_N00201 GND 50m
X_U1_H1    U1_N05127 U1_N07133 ILOAD1 GND REF4132_2V5_U1_H1 
C_U1_C6         U1_N09764 U1_N08222  1MEG  TC=0,0 
C_U1_C3         GND U1_N02220  1n  TC=0,0 
X_U1_U13         OUTFINAL VREF U1_N07377 COMP_BASIC_GEN_0 

.ends REF4132_2V5

.subckt REF4132_2V5_U1_H2 1 2 3 4  
H_U1_H2         3 4 VH_U1_H2 1
VH_U1_H2         1 2 0V
.ends REF4132_2V5_U1_H2

.subckt REF4132_2V5_U1_H1 1 2 3 4  
H_U1_H1         3 4 VH_U1_H1 1k
VH_U1_H1         1 2 0V
.ends REF4132_2V5_U1_H1

.SUBCKT PSR_0  VIN OUT1
R28         3 OUT1 180 
C28         3 OUT1 10N IC=0 
R27         OUT1 0 1 
C27         OUT1 0 1F IC=0 
EVCVS18     3 0 4 0  180
R26         5 4 180 
C26         5 4 10N IC=0 
R25         4 0 1 
C25         4 0 1F IC=0 
EVCVS17     5 0 6 0  180
R24         7 6 390 
C24         7 6 10N IC=0 
R23         6 0 1 
C23         6 0 1F IC=0 
EVCVS16     7 0 8 0  390
R22         9 8 390 
C22         9 8 10N IC=0 
R21         8 0 1 
C21         8 0 1F IC=0 
EVCVS15     9 0 10 0  390
C20         11 0 10N 
R20         12 11 1.3262K 
EVCVS14     12 0 13 0  1
R19         14 10 390 
C19         14 10 10N IC=0 
R18         10 0 1 
C18         10 0 1F IC=0 
EVCVS13     14 0 11 0  390
C17         13 0 10N 
R17         15 13 1.3262K 
EVCVS12     15 0 16 0  1
C16         16 0 10N 
R16         17 16 1.3262K 
EVCVS11     17 0 18 0  1
R15         19 18 7K 
C15         19 18 10N IC=0 
R14         18 0 1 
C14         18 0 1F IC=0 
EVCVS10     19 0 20 0  7K
R13         21 20 1.591549MEG 
C13         21 20 10N IC=0 
R12         20 0 1 
C12         20 0 7.524N IC=0 
EVCVS9      21 0 VIN 0  5.8532

.ENDS
*$
*VOLTAGE CONTROLLED SOURCE WITH LIMITS
.SUBCKT VCCS_LIMIT_0  VC+ VC- VIMON
*              
*.PARAM VI = V(VIMON)*1E-3
*.PARAM IPOS = 8000
*.PARAM INEG = -8000
ERES VC+ VC- VALUE = {1800*(V(VIMON) / SQRT((ABS(V(VIMON))/60000U)+1))}
.ENDS VCCS_LIMIT_0 
*$
.SUBCKT AOL_0  VP VN VO
R30         4 5 5.30516477 
C30         5 0 1U 
EVCVS20     4 0 6 0  1
EVCVS19     VO 0 7 0  1
EVCVS8      9 0 8 0  1
C11         7 0 1U 
R11         9 7 53.051647M 
R10         10 8 159.154943M 
C10         8 0 1U 
EVCVS7      10 0 11 0  1
C7          12 11 10N 
EVCVS4      12 0 5 0  318.3098862
R6          12 11 318.3098862 
R4          11 0 1 
C6          11 0  1.00000000000000E-0018 
EVCVS2      14 0 13 0  10.915494K
R8          14 6 10.915494K 
C9          14 6 10N 
R7          6 0 1 
C8          6 0  1.00000000000000E-0018 
C5          13 0 1U 
R3          15 13 2.2416K 
EVCVS1      15 0 VP VN  13.95214561K
.ENDS
*$
*VOLTAGE CONTROLLED SOURCE WITH LIMITS
.SUBCKT VCVS_LIMIT_0  VOUT+ VOUT- VIMON
*
E1 VOUT+ VOUT- VALUE={(IF(V(VIMON)<0,(120M*V(VIMON)+((100M*V(VIMON) / SQRT((ABS(V(VIMON))/60000U)+1)))),+
+(-16M*V(VIMON))+((130M*V(VIMON) / SQRT((ABS(V(VIMON))/60000U)+1)))))}
.ENDS VCVS_LIMIT_0 
*$
*TG IDEAL DIODE
.SUBCKT IDEAL_D_0  A C
D1 A C DNOM
.MODEL DNOM D (N=1.3 IS=1E-15)
.ENDS IDEAL_D_0 
*$
****
.SUBCKT COMP_BASIC_GEN_0  INP INM Y 
E_ABM 1 0 VALUE = {1E6*(V(INP)-V(INM))}
R1 1 Y 1M
C1 Y 0 1P
.ENDS COMP_BASIC_GEN_0 
*$
*TG IDEAL DIODE
.SUBCKT IDEAL_D_1  A C
D1 A C DNOM
.MODEL DNOM D (N=0.01 IS=1E-15)
.ENDS IDEAL_D_1 
*$
* VNSE - INPUT VOLTAGE NOISE IN NV/RT-HZ
.SUBCKT VNSE_0  1 2
* INPUT VARIABLES
* SET UP 1/F NOISE
* FLW = 1/F FREQUENCY IN HZ
.PARAM FLW=0.1
* NLF = VOLTAGE NOISE DENSITY AT 1/F FREQUENCY IN NV/RT(HZ)
.PARAM NLF=1930
* SET UP BROADBAND NOISE
* NVR = BROADBAND VOLTAGE NOISE DENSITY IN NV/RT(HZ)
.PARAM NVR=550
* CALCULATED VALUES
.PARAM GLF={PWR(FLW,0.25)*NLF/1164}
.PARAM RNV={1.184*PWR(NVR,2)}
.MODEL DVN D KF={PWR(FLW,0.5)/1E11} IS=1.0E-16
* CIRCUIT CONNECTIONS
I1 0 7 10E-3
I2 0 8 10E-3
D1 7 0 DVN
D2 8 0 DVN
E1 3 6 7 8 {GLF}
R1 3 0 1E9
R2 3 0 1E9
R3 3 6 1E9
E2 6 4 5 0 10
R4 5 0 {RNV}
R5 5 0 {RNV}
R6 3 4 1E9
R7 4 0 1E9
E3 1 2 3 4 1
.ENDS
*$
*VOLTAGE CONTROLLED SOURCE WITH LIMITS
.SUBCKT VCCS_IQ_0  VC+ VC- VOUT+ VOUT-
*              
.PARAM GAIN = 1E-6
GQ VOUT+ VOUT- VALUE ={IF(V(VC+)>0.5,(IF(TEMP<125, IF(TEMP<90,(IF(TEMP<25,(-0.0252U*(TEMP-25)+78.9U),+
+(-0.0145U*(TEMP-25)+78.9U))),(0.0249U*(TEMP-25)+76.35U)),(78.829U))),+
+(IF(TEMP<125, IF(TEMP<100,(1.175N*(TEMP-25)+2.285U),(3.5N*(TEMP-25)+2.11U)),2.485U)))}
.ENDS VCCS_IQ_0 
.SUBCKT COMPHYS_BASIC_GEN_0  INP INM HYS OUT_0 PARAMS: VDD=1 VSS=0 VTHRESH=0.5 
EIN INP1 INM1 INP INM 1 
EHYS INP1 INP2 VALUE { IF( V(1) > {VTHRESH},-V(HYS),0) }
EOUT OUT_0 0 VALUE { IF( V(INP2)>V(INM1), {VDD} ,{VSS}) }
R1 OUT_0 1 1
C1 1 0 5N
RINP1 INP1 0 1K
.ENDS COMPHYS_BASIC_GEN_0 
*$
*VOLTAGE CONTROLLED SOURCE WITH LIMITS
.SUBCKT VCVS_LIMIT_1  VOUT+ VOUT- DOUT
E1 VOUT+ VOUT- VALUE={IF(V(DOUT)>0.5,(-2.500167+IF(TEMP<140,IF(TEMP<105,IF(TEMP<70,IF(TEMP<25,IF(TEMP<0,IF(TEMP<-25,+
+(5.1U*(TEMP-25)+490U),(-7U*(TEMP-25)-110U)),+
+(-4U*(TEMP-25)-30U)),(1U*(TEMP-25)-35U)),(-8U*(TEMP-25)+375U)),+
+(-2U*(TEMP-25)-100U)),0)),0)}
.ENDS VCVS_LIMIT_1 
*$
*TWO INPUT AND GATE
.SUBCKT AND2_BASIC_GEN_SAN_0  IN1 IN2 Y PARAMS: VDD=1 VEE=0 VTH=0.5
E1 Y 0 VALUE ={(((VDD+VEE)/2)+ ((VDD-VEE)/2)*TANH((V(IN1,0)-VTH)*1E6))*(((VDD+VEE)/2)+ ((VDD-VEE)/2)*TANH((V(IN2,0)-VTH)*1E6))}
.ENDS AND2_BASIC_GEN_SAN_0 
*$
.SUBCKT COMP_BASIC_GEN_1  INP INM Y PARAMS: VDD=1 VEE=0 
E_ABM Y 0 VALUE = {((VDD+VEE)/2)+((VDD-VEE)/2)*TANH(10E12*(V(INP)-V(INM)))}
.ENDS COMP_BASIC_GEN_1 
*$
*
.SUBCKT DROPOUT_0  ILOAD VREF 
********DROPOUT**************
EDROP VREF 0 VALUE ={ IF(V(ILOAD)>1,(122U*V(ILOAD)),(-22.12M*V(ILOAD)+22.22M-1N))} 
*****************************
.ENDS DROPOUT_0