* THS3215
*****************************************************************************
* (C) Copyright 2016 Texas Instruments Incorporated. All rights reserved.
*****************************************************************************
** This model is designed as an aid for customers of Texas Instruments.
** TI and its licensors and suppliers make no warranties, either expressed
** or implied, with respect to this model, including the warranties of 
** merchantability or fitness for a particular purpose.  The model is
** provided solely on an "as is" basis.  The entire risk as to its quality
** and performance is with the customer.
*****************************************************************************
*
** Released by: WEBENCH(R) Design Center, Texas Instruments Inc.
* Part: THS3215
* Date: 04/01/2016 
* Model Type: All In One
* Simulator: TINA 
* Simulator Version: 9
* EVM Order Number: N/A 
* EVM Users Guide:  N/A 
* Datasheet: SBOS780 – MARCH 2016
*
* Model Version: 1.0
*
*****************************************************************************
*
* Updates:
*
* Version 1.0 : Release to Web
*
*****************************************************************************
* Notes:
* The followings are modeled: 
* 1. Input Buffers and D2S Stage 
*    Small Signal Bandwidth, Slew Rate, Output Voltage Noise, Input Current 
*    Noise, Output Impedance, Differential to Single-Ended Gain, Output Offset
*    Voltage, Input bias current, Common Mode Input range, CMRR, Differential 
*    Zin, Common Mode Zin, Output Range, Outpu current drive, Zout, Iq
*
* 2. OPS Stage
*    Small signal bandwidth, slew rate, input voltage noise, input current 
*    noise, Zout, Open Loop Transimpendance Gain, input bias current, 
*    common mode input raage, CMRR, Non-inverting Zin, Inverting Zin, 
*    output swing, short circuit current, Iq
*
* 3. DC Reference Buffer
*    Small signal bandwidth, slew rate, input voltage noise, input current
*    noise, Zout, Buffer gain, output offset voltage, input bias current, 
*    common mode input range, Zin, short circuit current. 
*
*****************************************************************************



.subckt THS3215 DISABLE GND INM INP PATHSEL VCCM1 VCCM2 VCCP1 VCCP2 VINM VINP
+ VMID_IN VMID_OUT VO1 VOUT VREF

XI0 DISABLE GND INM INP PATHSEL VCCM1 VCCM2 VCCP1 VCCP2 VINM VINP VMID_IN VMID_OUT
+ VO1 VOUT VREF THS3215_HT1

.ends







.subckt BALUN V VCM VN VP
R9 V NET023  1e-6
R4 NET035 VCM  1e-6
R5 NET023 NET016  1e-6
R3 NET027 VN  1e-6
R6 0 NET021  1e-6
R7 NET023 NET019  1e-6
R8 0 NET017  1e-6
R1 NET022 VP  1e-6
XTRANSFORMEREK0 NET016 NET021 NET022 NET035 TRANSFORMEREK0
XTRANSFORMEREK1 NET019 NET017 NET035 NET027 TRANSFORMEREK1
.ends BALUN


.subckt ANALOG_BUFFER VOUT VIN
R0 VIN 0  1e9
R1 VOUT 0  1e9
E0 VOUT 0 VIN 0 1
.ends ANALOG_BUFFER


.subckt THS3215_DCR_AMP_OUTPUTCIR_HT1 PD VCC VCCMAIN VEE VEEMAIN VIN VOUT
XIVOL VOL VEE VIMONINV OutputCir_VOHVOL PARAMS: VSUPPLYREF=-6 VOUTvsIOUT_X1=
+ {ABS(0)}  VOUTvsIOUT_Y1=-4.9 VOUTvsIOUT_X2= {ABS(-100e-3)}  VOUTvsIOUT_Y2=-4.9
+ 
XIVOH VCC VOH VIMON OutputCir_VOHVOL PARAMS: VSUPPLYREF=6 VOUTvsIOUT_X1= {ABS(0)}
+ VOUTvsIOUT_Y1=4.9 VOUTvsIOUT_X2= {ABS(100e-3)}  VOUTvsIOUT_Y2=4.9

XISOURCEVLIMIT NET75 NET76 VCC VEE OutputCir_IscVlimit PARAMS: RIsc=100e-3 IscVsVsupply_X1=3
+ IscVsVsupply_Y1= {ABS(80e-3)}  IscVsVsupply_X2=5 IscVsVsupply_Y2= {ABS(80e-3)}
+ 
XISINKVLIMIT NET79 NET092 VCC VEE OutputCir_IscVlimit PARAMS: RIsc=100e-3 IscVsVsupply_X1=3
+ IscVsVsupply_Y1= {ABS(-80e-3)}  IscVsVsupply_X2=5 IscVsVsupply_Y2= {ABS(-80e-3)}
+ 
DISOURCE NET092 NET75 OutputCir_Isc_DIDEAL
DISINK NET76 NET79 OutputCir_Isc_DIDEAL
XI14 NET070 NET15 DiodeIdeal
XI15 NET068 VOL DiodeIdeal
XI0 VCCMAIN VEEMAIN VIMON PD OutputCir_ILOAD
XI1 NET53 NET22 VIMON OutputCir_Rout PARAMS: Ro_Iout_0A=90 RIsc=100e-3 Isc=100e-3 Islope_const=5
XI6 NET22 NET0100 0 NET043 VCC VEE RECOVERYSIGNAL OutputCir_RecoveryAssist
XAHDLI43 NET055 NET054 RECOVERYSIGNAL VCC VEE HPA_OR2
XAHDLI41 VOUT NET067 NET055 VCC VEE HPA_COMP_IDEAL
XAHDLI42 NET059 VOUT NET054 VCC VEE HPA_COMP_IDEAL
HVIMONINV VIMONINV 0 VCURSINKDETECT  1
HVIMON VIMON 0 VCURSOURCEDETECT  1
RVIMONINV VIMONINV 0  1e9
RVIMON VIMON 0  1e9
RISC NET092 NET15  100e-3
ROUTMINOR NET0100 NET17  20
XI11 NET76 NET15 ANALOG_BUFFER
XI2 NET22 VIN ANALOG_BUFFER
VPROBE3 NET070 VOH 0
VPROBE2 NET043 NET0100 0
VTRIGGERVOL NET059 VOL 10e-3
VTRIGGERVOH VOH NET067 10e-3
VPROBE4 NET068 NET15 0
VCURSOURCEDETECT NET15 NET34 0
VCURSINKDETECT VOUT NET34 0
VPROBE1 NET53 NET17 0
LOUT NET17 NET092 1e-9
CP NET17 0  10e-15
COUT NET22 NET0100  9e-9
.ends THS3215_DCR_AMP_OUTPUTCIR_HT1


.subckt ZIN IN1 IN2 OUT1 OUT2 PARAMS: R5=100e-3 R4=100e-3 C3=50e-15 C2=50e-15
+ C1=50e-15 R2=10e9 R1=10e9 R3=1e9

R5 IN2 OUT2   {R5} 
R4 IN1 OUT1   {R4} 
C3 OUT1 OUT2   {C3} 
C2 OUT2 0   {C2} 
C1 OUT1 0   {C1} 
GR2 OUT2 0 OUT2 0  {1/R2} 
GR1 0 OUT1 0 OUT1  {1/R1} 
GR3 OUT1 OUT2 OUT1 OUT2  {1/R3} 
.ends ZIN


.subckt VINRANGE VCC VEE VIN VOUT PARAMS: VIL=100e-3 VIH=100e-3
XIDVIH NET12 NET16 DiodeIdeal
XIDVIL NET16 NET20 DiodeIdeal
R0 VIN NET16  1e-3
V0 NET16 VOUT 0
VIL NET20 VEE {VIL} 
VIH VCC NET12 {VIH} 
.ends VINRANGE


.subckt NONDOMPOLE VIN VOUT PARAMS: C=226.7e-12 R=1
XI23 NET4 VIN ANALOG_BUFFER
C1 VOUT 0   {C} 
R1 VOUT NET4   {R} 
.ends NONDOMPOLE


.subckt RECOVERYCIRCUIT A B VCC VEE PARAMS: VRecL=-10e-3 VRecH=-10e-3
XI2 NET8 NET014 DiodeIdeal
XI3 NET014 NET9 DiodeIdeal
VBRIDGE NET014 A 0
VPROBE A B 0
VRECL NET9 VEE {VRecL} 
VRECH VCC NET8 {VRecH} 
.ends RECOVERYCIRCUIT


.subckt DOMPOLE A B PARAMS: R=2.653e6 C=10e-12
R0 B A   {R} 
C0 A B   {C} 
.ends DOMPOLE


.subckt THS3215_DCR_AMP_HT1 VOUT PD VINM VCC VEE VINP
XI60 POWER VCC_INT VCC VEE_INT VEE NET61 VOUT THS3215_DCR_AMP_OUTPUTCIR_HT1
VINOFFSET NET21 NET11 4e-3
VPROBE1 NET31 HIGHZ
VDOMPOLEBIAS NET32 0 0
VPROBE2 HIGHZ NET41
R14 VCC_INT PD  10e6
XI17 NET1 NET11 Vnoise PARAMS: X=1 Y=92 Z=4.65
XI18 NET11 NET2 Inoise PARAMS: X=1 Y=41e3 Z=1.3e3
XI19 VCC_INT VEE_INT NET2 NET12 PSRR PARAMS: PSRRP_DC=-100 PSRRP_f3dB=100e3
+ PSRRN_DC=-90 PSRRN_f3dB=90e3

XI21 NET12 NET22 NET12 CMRR PARAMS: CMRR_DC=-70 CMRR_f3dB=125e3 CMRR_f3dB_FudgeFactor=1e3
XAHDLINV3 PD PDINV VCC_INT VEE_INT HPA_INV_IDEAL
XAHDLINV1 PDINV POWER VCC_INT VEE_INT HPA_INV_IDEAL
XI52 VINP_INT VINM_INT NET32 NET31 VEE_INT VCC_INT POWER GmItail PARAMS: Choice=2
+ Gm=7.255e-3 ITAILMAX_X1=3 ITAILMAX_Y1=900e-6 ITAILMAX_X2=5 ITAILMAX_Y2=900e-6
+ ITAILMIN_X2=5 ITAILMIN_Y2=900e-6

XI40 VCC VEE POWER VEE_INT VCC_INT Iq PARAMS: IOFF=1e-9 ION_X1=0 ION_Y1=1e-9
+ ION_X2=1.6 ION_Y2=1e-9 ION_X3=1.9 ION_Y3=1e-9 ION_X4=12 ION_Y4=1e-9

XI53 VINP VINM NET1 NET2 ZIN PARAMS: R5=100e-3 R4=100e-3 C3=50e-15 C2=50e-15
+ C1=50e-15 R2=10e9 R1=10e9 R3=1e9

XI56 VCC_INT VEE_INT NET22 VINM_INT VINRANGE PARAMS: VIL=1.1 VIH=1.1
XI54 VCC_INT VEE_INT NET21 VINP_INT VINRANGE PARAMS: VIL=1.1 VIH=1.1
IBIASP VINP_INT 0 -1e-6
IBIASM VINM_INT 0 -1e-6
XI26 NET51 NET61 NONDOMPOLE PARAMS: C=380e-12 R=1
XI28 NET41 NET51 VCC_INT VEE_INT RECOVERYCIRCUIT PARAMS: VRecL=-15 VRecH=-15
XI58 HIGHZ NET32 DOMPOLE PARAMS: R=137.8e3 C=7.25e-12
XI13 VEE_INT VEE ANALOG_BUFFER
XI12 VCC_INT VCC ANALOG_BUFFER
.ends THS3215_DCR_AMP_HT1


.subckt THS3215_D2S_CFA_OUTPUTCIR_HT1 PD VCC VCCMAIN VEE VEEMAIN VIN VOUT
XIVOL VOL VEE VIMONINV OutputCir_VOHVOL PARAMS: VSUPPLYREF=-6 VOUTvsIOUT_X1=
+ {ABS(0)}  VOUTvsIOUT_Y1=-4.6 VOUTvsIOUT_X2= {ABS(-70e-3)}  VOUTvsIOUT_Y2=-4.6
+ 
XIVOH VCC VOH VIMON OutputCir_VOHVOL PARAMS: VSUPPLYREF=6 VOUTvsIOUT_X1= {ABS(0)}
+ VOUTvsIOUT_Y1=4.6 VOUTvsIOUT_X2= {ABS(70e-3)}  VOUTvsIOUT_Y2=4.6

XISOURCEVLIMIT NET75 NET76 VCC VEE OutputCir_IscVlimit PARAMS: RIsc=100e-3 IscVsVsupply_X1=3
+ IscVsVsupply_Y1= {ABS(45e-3)}  IscVsVsupply_X2=5 IscVsVsupply_Y2= {ABS(45e-3)}
+ 
XISINKVLIMIT NET79 NET092 VCC VEE OutputCir_IscVlimit PARAMS: RIsc=100e-3 IscVsVsupply_X1=3
+ IscVsVsupply_Y1= {ABS(-45e-3)}  IscVsVsupply_X2=5 IscVsVsupply_Y2= {ABS(-45e-3)}
+ 
DISOURCE NET092 NET75 OutputCir_Isc_DIDEAL
DISINK NET76 NET79 OutputCir_Isc_DIDEAL
XI14 NET070 NET15 DiodeIdeal
XI15 NET068 VOL DiodeIdeal
XI0 VCCMAIN VEEMAIN VIMON PD OutputCir_ILOAD
XI1 NET53 NET22 VIMON OutputCir_Rout PARAMS: Ro_Iout_0A=23 RIsc=100e-3 Isc=45e-3 Islope_const=9
XI6 NET22 NET0100 0 NET043 VCC VEE RECOVERYSIGNAL OutputCir_RecoveryAssist
XAHDLI43 NET055 NET054 RECOVERYSIGNAL VCC VEE HPA_OR2
XAHDLI41 VOUT NET067 NET055 VCC VEE HPA_COMP_IDEAL
XAHDLI42 NET059 VOUT NET054 VCC VEE HPA_COMP_IDEAL
HVIMONINV VIMONINV 0 VCURSINKDETECT  1
HVIMON VIMON 0 VCURSOURCEDETECT  1
RVIMONINV VIMONINV 0  1e9
RVIMON VIMON 0  1e9
RISC NET092 NET15  100e-3
ROUTMINOR NET0100 NET17  45
XI11 NET76 NET15 ANALOG_BUFFER
XI2 NET22 VIN ANALOG_BUFFER
VPROBE3 NET070 VOH 0
VPROBE2 NET043 NET0100 0
VTRIGGERVOL NET059 VOL 10e-3
VTRIGGERVOH VOH NET067 10e-3
VPROBE4 NET068 NET15 0
VCURSOURCEDETECT NET15 NET34 0
VCURSINKDETECT VOUT NET34 0
VPROBE1 NET53 NET17 0
LOUT NET17 NET092 500e-12
CP NET17 0  10e-15
COUT NET22 NET0100  1.5e-9
.ends THS3215_D2S_CFA_OUTPUTCIR_HT1


.subckt THS3215_D2S_CFA_HT1 VOUT VCC VINM VEE VINP PD
HGMINVERSE NET047 NET32 VDETECT  26.525198938992
XI52 NET047 NET32 NET32 NET31 VEE_INT VCC_INT POWER GmItail PARAMS: Choice=2
+ Gm=37.7e-3 ITAILMAX_X1=3 ITAILMAX_Y1=1.4e-3 ITAILMAX_X2=5 ITAILMAX_Y2=1.4e-3
+ ITAILMIN_X2=5 ITAILMIN_Y2=1.4e-3

XI30 POWER VCC_INT VCC VEE_INT VEE NET61 VOUT THS3215_D2S_CFA_OUTPUTCIR_HT1
XI13 VEE_INT VEE ANALOG_BUFFER
XI12 VCC_INT VCC ANALOG_BUFFER
XI58 HIGHZ NET32 DOMPOLE PARAMS: R=120e3 C=825e-15
XI28 NET41 NET51 VCC_INT VEE_INT RECOVERYCIRCUIT PARAMS: VRecL=-1.5 VRecH=-1.5
XI40 VCC VEE POWER VEE_INT VCC_INT Iq PARAMS: IOFF=1e-9 ION_X1=0 ION_Y1=21e-3
+ ION_X2=1.6 ION_Y2=21e-3 ION_X3=1.9 ION_Y3=21e-3 ION_X4=12 ION_Y4=21e-3

XAHDLINV3 PD PDINV VCC_INT VEE_INT HPA_INV_IDEAL
XAHDLINV1 PDINV POWER VCC_INT VEE_INT HPA_INV_IDEAL
R14 VCC_INT PD  10e6
R1 VINP NET80  100e-3
R2 VINP_INT2 VINM  10
VDETECT VINP_INT1 VINP_INT2 0
VINOFFSET NET92 NET116 0
VPROBE1 NET31 HIGHZ
VDOMPOLEBIAS NET32 0 0
VPROBE2 HIGHZ NET41
XI26 NET51 NET61 NONDOMPOLE PARAMS: C=150e-12 R=1
IBIASP NET110 0 -1e-9
IBIASM VINM 0 -1e-9
XI54 VCC_INT VEE_INT NET92 NET110 VINRANGE PARAMS: VIL=100e-3 VIH=100e-3
XI17 NET80 NET114 Vnoise PARAMS: X=100 Y=41 Z=3.425
XI21 NET119 NET116 NET119 CMRR PARAMS: CMRR_DC=-60 CMRR_f3dB=3e6 CMRR_f3dB_FudgeFactor=1
XI19 VCC_INT VEE_INT NET114 NET119 PSRR PARAMS: PSRRP_DC=-60 PSRRP_f3dB=500e3
+ PSRRN_DC=-60 PSRRN_f3dB=500e3

C2 VINM 0  50e-15
C1 NET80 0  50e-15
GR1 0 NET80 0 NET80 100e-12
XI67 VINM 0 Inoise PARAMS: X=100 Y=300 Z=30
XI18 NET114 0 Inoise PARAMS: X=100 Y=30 Z=3
E0 VINP_INT1 0 NET110 0 1
.ends THS3215_D2S_CFA_HT1


.subckt THS3215_D2S_FRONTEND_HT1 INM INP OUTM OUTP VCC VEE
IBIASP NET018 0 2e-6
IBIASM NET022 0 2e-6
XI4 VCC VEE NET10 NET018 VINRANGE PARAMS: VIL=1.8 VIH=1.3
XI56 VCC VEE NET9 NET022 VINRANGE PARAMS: VIL=1.8 VIH=1.3
XI18 NET10 NET9 Inoise PARAMS: X=1 Y=20e3 Z=2e3
XI0 INP INM NET10 NET9 ZIN PARAMS: R5=100e-3 R4=100e-3 C3=1.725e-12 C2=1.15e-12
+ C1=1.15e-12 R2=40e3 R1=40e3 R3=26.67e3

XI6 OUTP NET018 ANALOG_BUFFER
XI7 OUTM NET022 ANALOG_BUFFER
.ends THS3215_D2S_FRONTEND_HT1


.subckt THS3215_D2S_HT1 VREF VINM PD VINP VCC VEE VOUT
XI3 NET16 VCC NET20 VEE NET14 PD THS3215_D2S_CFA_HT1
R4 NET26 NET14  50
R1 NET20 NET16  500
R2 VREF NET14  100
R3 NET27 NET20  250
V4 VOUT NET16 4e-3
XI24 VINM VINP NET27 NET26 VCC VEE THS3215_D2S_FRONTEND_HT1
.ends THS3215_D2S_HT1


.subckt THS3215_OPS_CFA_OUTPUTCIR_HT1 PD VCC VCCMAIN VEE VEEMAIN VIN VOUT
XIVOL VOL VEE VIMONINV OutputCir_VOHVOL PARAMS: VSUPPLYREF=-6 VOUTvsIOUT_X1=
+ {ABS(0)}  VOUTvsIOUT_Y1=-4.5 VOUTvsIOUT_X2= {ABS(-58.3e-3)}  VOUTvsIOUT_Y2=-3.3
+ 
XIVOH VCC VOH VIMON OutputCir_VOHVOL PARAMS: VSUPPLYREF=6 VOUTvsIOUT_X1= {ABS(0)}
+ VOUTvsIOUT_Y1=4.5 VOUTvsIOUT_X2= {ABS(125e-3)}  VOUTvsIOUT_Y2=2.5

XISOURCEVLIMIT NET75 NET76 VCC VEE OutputCir_IscVlimit PARAMS: RIsc=100e-3 IscVsVsupply_X1=10
+ IscVsVsupply_Y1= {ABS(140e-3)}  IscVsVsupply_X2=12 IscVsVsupply_Y2= {ABS(140e-3)}
+ 
XISINKVLIMIT NET79 NET092 VCC VEE OutputCir_IscVlimit PARAMS: RIsc=100e-3 IscVsVsupply_X1=10
+ IscVsVsupply_Y1= {ABS(-140e-3)}  IscVsVsupply_X2=12 IscVsVsupply_Y2= {ABS(-140e-3)}
+ 
DISOURCE NET092 NET75 OutputCir_Isc_DIDEAL
DISINK NET76 NET79 OutputCir_Isc_DIDEAL
XI14 NET070 NET15 DiodeIdeal
XI15 NET068 VOL DiodeIdeal
XI0 VCCMAIN VEEMAIN VIMON PD OutputCir_ILOAD
XI1 NET53 NET22 VIMON OutputCir_Rout PARAMS: Ro_Iout_0A=106 RIsc=100e-3 Isc=140e-3 Islope_const=9
XI6 NET22 NET0100 0 NET043 VCC VEE RECOVERYSIGNAL OutputCir_RecoveryAssist
XAHDLI43 NET055 NET054 RECOVERYSIGNAL VCC VEE HPA_OR2
XAHDLI41 VOUT NET067 NET055 VCC VEE HPA_COMP_IDEAL
XAHDLI42 NET059 VOUT NET054 VCC VEE HPA_COMP_IDEAL
HVIMONINV VIMONINV 0 VCURSINKDETECT  1
HVIMON VIMON 0 VCURSOURCEDETECT  1
RVIMONINV VIMONINV 0  1e9
RVIMON VIMON 0  1e9
RISC NET092 NET15  100e-3
ROUTMINOR NET0100 NET17  8.5
XI11 NET76 NET15 ANALOG_BUFFER
XI2 NET22 VIN ANALOG_BUFFER
VPROBE3 NET070 VOH 0
VPROBE2 NET043 NET0100 0
VTRIGGERVOL NET059 VOL 10e-3
VTRIGGERVOH VOH NET067 10e-3
VPROBE4 NET068 NET15 0
VCURSOURCEDETECT NET15 NET34 0
VCURSINKDETECT VOUT NET34 0
VPROBE1 NET53 NET17 0
LOUT NET17 NET092 5.75e-9
CP NET17 0  10e-15
COUT NET22 NET0100  30e-9
.ends THS3215_OPS_CFA_OUTPUTCIR_HT1


.subckt THS3215_OPS_CFA_HT1 VOUT PD VINM VCC VEE VINP
L0 NET0115 NET048 800e-12
HGMINVERSE NET042 NET32 VDETECT  26.525198938992
XI52 NET042 NET32 NET32 NET31 VEE_INT VCC_INT POWER GmItail PARAMS: Choice=2
+ Gm=37.7e-3 ITAILMAX_X1=3 ITAILMAX_Y1=2.4e-3 ITAILMAX_X2=5 ITAILMAX_Y2=2.4e-3
+ ITAILMIN_X2=5 ITAILMIN_Y2=2.4e-3

XI69 POWER VCC_INT VCC VEE_INT VEE NET61 VOUT THS3215_OPS_CFA_OUTPUTCIR_HT1
E0 VINP_INT1 0 NET029 0 1
XI18 NET039 0 Inoise PARAMS: X=100 Y=21e3 Z=1.3e3
XI67 VINM 0 Inoise PARAMS: X=100 Y=190e3 Z=18e3
GR1 0 NET088 0 NET088 100e-12
C3 NET048 0  900e-15
C1 NET088 0  3.3e-12
C2 NET0115 0  1e-15
XI19 VCC_INT VEE_INT NET039 NET032 PSRR PARAMS: PSRRP_DC=-80 PSRRP_f3dB=10e6
+ PSRRN_DC=-80 PSRRN_f3dB=10e6

XI21 NET032 NET031 NET032 CMRR PARAMS: CMRR_DC=-55 CMRR_f3dB=10e6 CMRR_f3dB_FudgeFactor=1
XI17 NET088 NET039 Vnoise PARAMS: X=100 Y=21 Z=2.5
XI54 VCC_INT VEE_INT NET047 NET029 VINRANGE PARAMS: VIL=2.6 VIH=2.6
IBIASP NET029 0 -5e-6
IBIASM VINM 0 -5e-6
XI26 NET51 NET61 NONDOMPOLE PARAMS: C=175e-12 R=1
VDETECT VINP_INT1 VINP_INT2 0
VINOFFSET NET047 NET031 2.5e-3
VPROBE1 NET31 HIGHZ
VDOMPOLEBIAS NET32 0 0
VPROBE2 HIGHZ NET41
R3 NET048 VINM  1e-3
R14 VCC_INT PD  10e6
R1 VINP NET088  100e-3
R2 VINP_INT2 NET0115  120
XAHDLINV3 PD PDINV VCC_INT VEE_INT HPA_INV_IDEAL
XAHDLINV1 PDINV POWER VCC_INT VEE_INT HPA_INV_IDEAL
XI40 VCC VEE POWER VEE_INT VCC_INT Iq PARAMS: IOFF=1e-9 ION_X1=0 ION_Y1=14e-3
+ ION_X2=1.6 ION_Y2=14e-3 ION_X3=1.9 ION_Y3=14e-3 ION_X4=12 ION_Y4=14e-3

XI28 NET41 NET51 VCC_INT VEE_INT RECOVERYCIRCUIT PARAMS: VRecL=-15 VRecH=-15
XI58 HIGHZ NET32 DOMPOLE PARAMS: R=1.7e6 C=700e-15
XI13 VEE_INT VEE ANALOG_BUFFER
XI12 VCC_INT VCC ANALOG_BUFFER
.ends THS3215_OPS_CFA_HT1


.subckt THS3215_HT1 DISABLE GND INM INP PATHSEL VCCM1 VCCM2 VCCP1 VCCP2 VINM
+ VINP VMID_IN VMID_OUT VO1 VOUT VREF

D3 VCCM2 VCCM1 DBASIC
D0 VCCM1 VCCM2 DBASIC
D1 VCCP1 VCCP2 DBASIC
D2 VCCP2 VCCP1 DBASIC
XI27 VMID_OUT NET059 VMID_OUT VCCP VCCM VMID_IN THS3215_DCR_AMP_HT1
XI3 VREF INM NET36 INP VCCP VCCM VO1 THS3215_D2S_HT1
XI12 VINP NET14 PATHSEL_INT SWITCH_IDEAL PARAMS: Ron=100e-3 Roff=100e6
XI11 VO1 NET14 PATHSEL_INT_INV SWITCH_IDEAL PARAMS: Ron=100e-3 Roff=100e6
C1 VMID_IN 0  1.5e-12
CR10 DISABLE 0  1.5e-12
C0 PATHSEL 0  1.5e-12
XAHDLI15 DISABLE NET051 NET066 0 VCCP VCCM DIGLEVSHIFT
XAHDLI2 PATHSEL PATHSEL_INT NET082 0 NET083 0 DIGLEVSHIFT
V6 VCCM1 VCCM 0
V2 NET066 0 1.4
V1 NET082 0 1.4
V0 NET083 0 1
V5 VCCP1 VCCP 0
XAHDLINV0 PATHSEL_INT PATHSEL_INT_INV NET083 0 HPA_INV_IDEAL
XAHDLINV1 NET051 NET0117 VCCP VCCM HPA_INV_IDEAL
R9 DISABLE 0  18e3
R11 PATHSEL 0  18e3
R15 VCCP2 VCCP  10e-3
R7 VCCP VMID_IN  50e3
R8 VMID_IN VCCM  50e3
R13 VCCM2 VCCM  10e-3
R6 NET14 GND  18.5e3
R5 VINM VOUT  18.5e3
XI1 VOUT NET0117 VINM VCCP VCCM NET14 THS3215_OPS_CFA_HT1
.ends THS3215_HT1




.SUBCKT HPA_OR2 1 2 3 VDD VSS
E1 4 0 VALUE = { IF( ((V(1)< (V(VDD)+V(VSS))/2 ) & (V(2)< (V(VDD)+V(VSS))/2 )), V(VSS), V(VDD) ) }
R1 4 3 1
C1 3 0 1e-12
.ENDS


.SUBCKT HPA_INV_IDEAL 1 2 VDD VSS
E1 2 0 VALUE = { IF( V(1)> (V(VDD)+V(VSS))/2, V(VSS), V(VDD) ) }
.ENDS


.SUBCKT DIGLEVSHIFT 1 2 VDD_OLD VSS_OLD VDD_NEW VSS_NEW
E1 3 0 VALUE = { IF( V(1) < (V(VDD_OLD)+V(VSS_OLD))/2, V(VSS_NEW), V(VDD_NEW) ) }
R1 3 2 1
C1 2 0 1e-12
.ENDS


.SUBCKT HPA_COMP_IDEAL INP INN OUT VDD VSS
E1 OUT 0 VALUE = { IF( (V(INP) > V(INN)), V(VDD), V(VSS) ) }
.ENDS



.SUBCKT TRANSFORMEREK0 1 2 3 4
K1 L1 L2 0.5
L1 1 2 10uH
L2 3 4 10uH
.ends



.SUBCKT TRANSFORMEREK1 1 2 3 4
K1 L1 L2 0.5
L1 1 2 10uH
L2 3 4 10uH
.ends


.SUBCKT CCCS  Vinp Vinm Ioutp Ioutm VEE VCC PD PARAMS:
+ Gain 	      = 1

+ ITAILMAX_X1 = { 3.0 }
+ ITAILMAX_Y1 = { 100m }

+ ITAILMAX_X2 = { 5.0 }
+ ITAILMAX_Y2 = { 100m }

+ ITAILMIN_X1 = { 3.0 }
+ ITAILMIN_Y1 = { 100m }

+ ITAILMIN_X2 = { 5.0 }
+ ITAILMIN_Y2 = { 100m }


X1 PD PDINV VCC VEE LOGIC1 0 DLSINV
VLOGIC1 LOGIC1 0 1


.PARAM ITAILMAX_SLOPE = 
+ { ( ITAILMAX_Y2 - ITAILMAX_Y1 ) / ( ITAILMAX_X2 - ITAILMAX_X1 ) }
.PARAM ITAILMAX_INTCP = 
+ { ITAILMAX_Y1 - ITAILMAX_SLOPE * ITAILMAX_X1 }

EITAILMAX ITAILMAX 0 VALUE = 
+ { ITAILMAX_SLOPE * V(VCC,VEE) + ITAILMAX_INTCP  }



.PARAM ITAILMIN_SLOPE = 
+ { ( ITAILMIN_Y2 - ITAILMIN_Y1 ) / ( ITAILMIN_X2 - ITAILMIN_X1 ) }
.PARAM ITAILMIN_INTCP = 
+ { ITAILMIN_Y1 - ITAILMIN_SLOPE * ITAILMIN_X1 }

EITAILMIN ITAILMIN 0 VALUE = 
+ { ITAILMIN_SLOPE * V(VCC,VEE) + ITAILMIN_INTCP  }


VDETECT VINP VINM 0

EVDETECT_SEG1 VDETECT_SEG1 0 VALUE = { IF ( 		          I(VDETECT) <= 0, 1, 0 ) }
EVDETECT_SEG2 VDETECT_SEG2 0 VALUE = { IF ( I(VDETECT) > 0		             , 1, 0 ) }


F1 IOUTP IOUTM VALUE = { V(ITAILMAX) * TANH( I(VDETECT) / V(ITAILMAX) ) * Gain * ( 1-V(PDINV) )  }




.ENDS




.SUBCKT CMRR A B C PARAMS:

+ CMRR_DC 	        = -100
+ CMRR_f3dB             = 50e3
+ CMRR_f3dB_FudgeFactor = 3.4

.PARAM CMRR       = {0-CMRR_DC}
.PARAM FCMRR	  = {CMRR_f3dB * CMRR_f3dB_FudgeFactor}

X1 A B C 0 CMRR_NEW PARAMS: CMRR = {CMRR} FCMRR = {FCMRR}
.ENDS


.SUBCKT DiodeIdeal NEG POS











G1 POS NEG VALUE = { IF ( V(POS,NEG) <= 0 , 0, V(POS,NEG)*0.01G ) }
R0 POS NEG 1000G



.ENDS


.SUBCKT GmItail  Vinp Vinm Ioutp Ioutm VEE VCC PD PARAMS:
+ Choice 	  = 2

+ Gm 	      = 3.77e-2

+ ITAILMAX_X1 = { 3.0 }
+ ITAILMAX_Y1 = { 10m }

+ ITAILMAX_X2 = { 5.0 }
+ ITAILMAX_Y2 = { 10m }

+ ITAILMIN_X1 = { 3.0 }
+ ITAILMIN_Y1 = { 10m }

+ ITAILMIN_X2 = { 5.0 }
+ ITAILMIN_Y2 = { 10m }


.PARAM Choice1 = { IF ( Choice == 1, 1, 0 ) }
.PARAM Choice2 = { IF ( Choice == 2, 1, 0 ) }
.PARAM Choice3 = { IF ( Choice == 3, 1, 0 ) }




X1 PD PDINV VCC VEE LOGIC1 0 DLSINV
VLOGIC1 LOGIC1 0 1




.PARAM ITAILMAX_SLOPE = 
+ { ( ITAILMAX_Y2 - ITAILMAX_Y1 ) / ( ITAILMAX_X2 - ITAILMAX_X1 ) }
.PARAM ITAILMAX_INTCP = 
+ { ITAILMAX_Y1 - ITAILMAX_SLOPE * ITAILMAX_X1 }

EITAILMAX ITAILMAX 0 VALUE = 
+ { ITAILMAX_SLOPE * V(VCC,VEE) + ITAILMAX_INTCP  }




.PARAM ITAILMIN_SLOPE = 
+ { ( ITAILMIN_Y2 - ITAILMIN_Y1 ) / ( ITAILMIN_X2 - ITAILMIN_X1 ) }
.PARAM ITAILMIN_INTCP = 
+ { ITAILMIN_Y1 - ITAILMIN_SLOPE * ITAILMIN_X1 }

EITAILMIN ITAILMIN 0 VALUE = 
+ { ITAILMIN_SLOPE * V(VCC,VEE) + ITAILMIN_INTCP  }


G1 IOUTP IOUTM VALUE = { ( 1-V(PDINV) ) * (
+ Choice1 * ( LIMIT ( Gm * V(VINP,VINM) , -V(ITAILMIN), V(ITAILMAX) ) ) +
+ Choice2 * ( Gm * (V(ITAILMAX)/Gm) * TANH( V(VINP,VINM) / (V(ITAILMAX)/Gm) )   ) +	
+ Choice3 * ( Gm * V(VINP,VINM) / ( 1 + Gm/V(ITAILMAX) * ABS( V(VINP,VINM) ) )                )		
+					   					  )	}



.ENDS


.SUBCKT Inoise A B PARAMS:
+ X = { 1m  }
+ Y = { 100 }
+ Z = { 1 }
X1 A B FEMT PARAMS: NLFF = { Y }  FLWF = { X } NVRF = { Z }
.ENDS


.subckt Iq VCCmain VEEmain PD VEE VCC PARAMS:
+ IOFF = { 1n }

+ ION_X1 = { 0.0 }
+ ION_Y1 = { 1m }

+ ION_X2 = { 1.6 }
+ ION_Y2 = { 1m }

+ ION_X3 = { 1.9 }
+ ION_Y3 = { 1m }

+ ION_X4 = { 12.0 }
+ ION_Y4 = { 1m }



















EION_SEG1 ION_SEG1 0 VALUE = { IF ( 		          V(VCC,VEE) <= ION_X2, 1, 0 ) }
EION_SEG2 ION_SEG2 0 VALUE = { IF ( V(VCC,VEE) > ION_X2 & V(VCC,VEE) <= ION_X3, 1, 0 ) }
EION_SEG3 ION_SEG3 0 VALUE = { IF ( V(VCC,VEE) > ION_X3		              , 1, 0 ) }



.PARAM ION_SEG1_SLOPE = { ( ION_Y2 - ION_Y1 ) / ( ION_X2 - ION_X1 ) }
.PARAM ION_SEG1_INTCP = { ION_Y1 - ION_SEG1_SLOPE * ION_X1 }

.PARAM ION_SEG2_SLOPE = { ( ION_Y3 - ION_Y2 ) / ( ION_X3 - ION_X2 ) }
.PARAM ION_SEG2_INTCP = { ION_Y2 - ION_SEG2_SLOPE * ION_X2 }

.PARAM ION_SEG3_SLOPE = { ( ION_Y4 - ION_Y3 ) / ( ION_X4 - ION_X3 ) }
.PARAM ION_SEG3_INTCP = { ION_Y3 - ION_SEG3_SLOPE * ION_X3 }



EION ION 0 VALUE = { 	V(ION_SEG1) * ( ION_SEG1_SLOPE * V(VCC,VEE) + ION_SEG1_INTCP ) +
+			V(ION_SEG2) * ( ION_SEG2_SLOPE * V(VCC,VEE) + ION_SEG2_INTCP ) +
+ 			V(ION_SEG3) * ( ION_SEG3_SLOPE * V(VCC,VEE) + ION_SEG3_INTCP ) 	}



X1 PD PDINV VCC VEE LOGIC1 0 DLSINV
VLOGIC1 LOGIC1 0 1

G1 VCCMAIN VEEMAIN VALUE = { V(ION) * ( 1-V(PDINV) ) + IOFF * V(PDINV) }  

.ends


.SUBCKT OutputCir_ILOAD  VDD VSS VIMON PD
X1 PD PDINV VDD VSS LOGIC1 0 DLSINV
VLOGIC1 LOGIC1 0 1

G1 VDD 0 VALUE = {IF(V(VIMON) >= 0, V(VIMON)*( 1-V(PDINV) ), 0)}
G2 VSS 0 VALUE = {IF(V(VIMON)  < 0, V(VIMON)*( 1-V(PDINV) ), 0)}

.ENDS


.SUBCKT OutputCir_IscDiodeIdeal NEG POS

G1 POS NEG VALUE = { IF ( V(POS,NEG) <= 0 , 0, V(POS,NEG)*0.01G ) }
R0 POS NEG 1000G


.ENDS


.SUBCKT OutputCir_IscVlimit A B VCC VEE PARAMS:
+RIsc 		 = { 100m }

+IscVsVsupply_X1 = { 3.0 }
+IscVsVsupply_Y1 = { 75m }

+IscVsVsupply_X2 = { 5.0 }
+IscVsVsupply_Y2 = { 100m }

.PARAM IscVsVsupply_SLOPE = 
+ { ( IscVsVsupply_Y2 - IscVsVsupply_Y1 ) / ( IscVsVsupply_X2 - IscVsVsupply_X1 ) }
.PARAM IscVsVsupply_INTCP = 
+ { IscVsVsupply_Y1 - IscVsVsupply_SLOPE * IscVsVsupply_X1 }

EIscVsVsupply IscVsVsupply 0 VALUE = 
+ { IscVsVsupply_SLOPE * V(VCC,VEE) + IscVsVsupply_INTCP  }

E1 A B VALUE = { V(IscVsVsupply) * RIsc }

.ENDS


.SUBCKT OutputCir_RecoveryAssist  VINP VINM IOUTP IOUTM VCC VEE RecoverySignal



X1 RecoverySignal RS VCC VEE LOGIC1 0 DLS
VLOGIC1 LOGIC1 0 1

G1 IOUTP IOUTM VALUE = { LIMIT ( 1m * V(VINP,VINM) *  V(RS) , -100m, 100m ) }

.ENDS


.SUBCKT OutputCir_Rout B A VIMON PARAMS:
+ Ro_Iout_0A = 100
+ RIsc = 100m
+ Isc = 100m
+ Islope_const = 1/100

.PARAM Islope = { Islope_const * Isc }










G1 A B VALUE = { V(A,B) * 1 / ( (Ro_Iout_0A - RIsc) * Islope / ( Islope + ABS(V(VIMON)) ) )   }



.ENDS


.SUBCKT OutputCir_VOHVOLDiodeIdeal NEG POS

G1 POS NEG VALUE = { IF ( V(POS,NEG) <= 0 , 0, V(POS,NEG)*0.01G ) }
R0 POS NEG 1000G


.ENDS


.SUBCKT OutputCir_VOHVOL A B C  PARAMS:
+ VSUPPLYREF    = {2.5} 

+ VOUTvsIOUT_X1 = { ABS(0) }
+ VOUTvsIOUT_Y1 = { 2.4 }

+ VOUTvsIOUT_X2 = { ABS(100m) }
+ VOUTvsIOUT_Y2 = { 2.1 }


.PARAM VDROPvsIOUT_X1 = { VOUTvsIOUT_X1 }
.PARAM VDROPvsIOUT_Y1 = { ABS(VSUPPLYREF-VOUTvsIOUT_Y1) }

.PARAM VDROPvsIOUT_X2 = { VOUTvsIOUT_X2 }
.PARAM VDROPvsIOUT_Y2 = { ABS(VSUPPLYREF-VOUTvsIOUT_Y2) }


.PARAM VDROPvsIOUT_SLOPE = 
+ { ( VDROPvsIOUT_Y2 - VDROPvsIOUT_Y1 ) / ( VDROPvsIOUT_X2 - VDROPvsIOUT_X1 ) }
.PARAM VDROPvsIOUT_INTCP = 
+ { VDROPvsIOUT_Y1 - VDROPvsIOUT_SLOPE * VDROPvsIOUT_X1 }


EVDROPvsIOUT VDROPvsIOUT 0 VALUE = 
+ { VDROPvsIOUT_SLOPE * V(C) + VDROPvsIOUT_INTCP  }

E1 A B VALUE = { V(VDROPvsIOUT) }



.ENDS







.SUBCKT PSRR VDD VSS A B PARAMS:


+ PSRRP_DC    = -100
+ PSRRP_f3dB  = 100k

+ PSRRN_DC    = -90
+ PSRRN_f3dB  = 90k

.PARAM PSRRP       = {0-PSRRP_DC}
.PARAM PSRRN       = {0-PSRRN_DC}
.PARAM FPSRRP      = {PSRRP_f3dB}
.PARAM FPSRRN      = {PSRRN_f3dB}


X1 VDD VSS A B 0 PSRR_DUAL_NEW PARAMS:
+ PSRRP = {PSRRP} FPSRRP = {FPSRRP}
+ PSRRN = {PSRRN} FPSRRN = {FPSRRN}
.ENDS


.SUBCKT RecoveryCircuit_DiodeIdeal NEG POS

G1 POS NEG VALUE = { IF ( V(POS,NEG) <= 0 , 0, V(POS,NEG)*0.01G ) }
R0 POS NEG 1000G


.ENDS


.SUBCKT Vinrange_DiodeIdeal NEG POS

G1 POS NEG VALUE = { IF ( V(POS,NEG) <= 0 , 0, V(POS,NEG)*0.01G ) }
R0 POS NEG 1000G


.ENDS


.SUBCKT Vnoise A B PARAMS:
+ X = { 1m  }
+ Y = { 100 }
+ Z = { 5  }
X1 A B VNSE PARAMS: NLF = { Y } FLW = { X }  NVR = { Z }
.ENDS












.SUBCKT VNSE  1 2 PARAMS: NLF = 10 FLW = 4  NVR = 4.6
.PARAM GLF={PWR(FLW,0.25)*NLF/1164}
.PARAM RNV={1.184*PWR(NVR,2)}
.MODEL DVN D KF={PWR(FLW,0.5)/1E11} IS=1.0E-16
I1 0 7 10E-3
I2 0 8 10E-3
D1 7 0 DVN
D2 8 0 DVN
E1 3 6 7 8 {GLF}
R1 3 0 1E9
R2 3 0 1E9
R3 3 6 1E9
E2 6 4 5 0 10
R4 5 0 {RNV}
R5 5 0 {RNV}
R6 3 4 1E9
R7 4 0 1E9
E3 1 2 3 4 1
C1 1 0 1E-15
C2 2 0 1E-15
C3 1 2 1E-15
.ENDS



.SUBCKT FEMT  1 2 PARAMS: NLFF = 0.1 FLWF = 0.001 NVRF = 0.1
.PARAM GLFF={PWR(FLWF,0.25)*NLFF/1164}
.PARAM RNVF={1.184*PWR(NVRF,2)}
.MODEL DVNF D KF={PWR(FLWF,0.5)/1E11} IS=1.0E-16
I1 0 7 10E-3
I2 0 8 10E-3
D1 7 0 DVNF
D2 8 0 DVNF
E1 3 6 7 8 {GLFF}
R1 3 0 1E9
R2 3 0 1E9
R3 3 6 1E9
E2 6 4 5 0 10
R4 5 0 {RNVF}
R5 5 0 {RNVF}
R6 3 4 1E9
R7 4 0 1E9
G1 1 2 3 4 1E-6
C1 1 0 1E-15
C2 2 0 1E-15
C3 1 2 1E-15
.ENDS






.SUBCKT PSRR_SINGLE   VDD  VSS  VI  VO  GNDF PARAMS: PSRR = 130 FPSRR = 1.6
.PARAM PI = 3.141592
.PARAM RPSRR = 1
.PARAM GPSRR = {PWR(10,-PSRR/20)/RPSRR}
.PARAM LPSRR = {RPSRR/(2*PI*FPSRR)}
G1  GNDF 1 VDD VSS {GPSRR}
R1  1 2 {RPSRR}
L1  2 GNDF {LPSRR}
E1  VO VI 1 GNDF 1
C2  VDD VSS 10P
.ENDS

.SUBCKT PSRR_SINGLE_NEW   VDD  VSS  VI  VO  GNDF PARAMS: PSRR = 130 FPSRR = 1.6
.PARAM PI = 3.141592
.PARAM RPSRR = 1
.PARAM GPSRR = {PWR(10,-PSRR/20)/RPSRR}
.PARAM LPSRR = {RPSRR/(2*PI*FPSRR)}
G1  GNDF 1 VDD VSS {GPSRR}
R1  1 2 {RPSRR}
L1  2 GNDF {LPSRR}

EA  101 GNDF 1 GNDF 1
GRA  101 102 VALUE = { V(101,102)/1e6 }
CA  102 GNDF 1e3
EB  1 1a VALUE = {V(102,GNDF)}

E1  VO VI 1a GNDF 1
C2  VDD VSS 10P
.ENDS

.SUBCKT PSRR_DUAL   VDD  VSS  VI  VO  GNDF 
+ PARAMS: PSRRP = 130 FPSRRP = 1.6
+ PSRRN = 130 FPSRRN = 1.6
.PARAM PI = 3.141592
.PARAM RPSRRP = 1
.PARAM GPSRRP = {PWR(10,-PSRRP/20)/RPSRRP}
.PARAM LPSRRP = {RPSRRP/(2*PI*FPSRRP)}
.PARAM RPSRRN = 1
.PARAM GPSRRN = {PWR(10,-PSRRN/20)/RPSRRN}
.PARAM LPSRRN = {RPSRRN/(2*PI*FPSRRN)}
G1  GNDF 1 VDD GNDF {GPSRRP}
R1  1 2 {RPSRRP}
L1  2 GNDF {LPSRRP}

G2  GNDF 3 VSS GNDF {GPSRRN}
R2  3 4 {RPSRRN}
L2  4 GNDF {LPSRRN}

E1  VO VI VALUE = {V(1,GNDF) + V(3,GNDF)}
C3  VDD VSS 10P
.ENDS

.SUBCKT PSRR_DUAL_NEW   VDD  VSS  VI  VO  GNDF 
+ PARAMS: PSRRP = 130 FPSRRP = 1.6
+ PSRRN = 130 FPSRRN = 1.6
.PARAM PI = 3.141592
.PARAM RPSRRP = 1
.PARAM GPSRRP = {PWR(10,-PSRRP/20)/RPSRRP}
.PARAM LPSRRP = {RPSRRP/(2*PI*FPSRRP)}
.PARAM RPSRRN = 1
.PARAM GPSRRN = {PWR(10,-PSRRN/20)/RPSRRN}
.PARAM LPSRRN = {RPSRRN/(2*PI*FPSRRN)}

G1  GNDF 1 VDD GNDF {GPSRRP}
R1  1 2 {RPSRRP}
L1  2 GNDF {LPSRRP}

EA  101 GNDF 1 GNDF 1
GRA  101 102 VALUE = { V(101,102)/1e6 }
CA  102 GNDF 1e3
EB  1 1a VALUE = {V(102,GNDF)}


G2  GNDF 3 VSS GNDF {GPSRRN}
R2  3 4 {RPSRRN}
L2  4 GNDF {LPSRRN}

EC  301 GNDF 3 GNDF 1
GRC  301 302 VALUE = { V(301,302)/1e6 }
CC  302 GNDF 1e3
ED  3 3a VALUE = {V(302,GNDF)}


E1  VO VI VALUE = {V(1a,GNDF) + V(3a,GNDF)}
C3  VDD VSS 10P
.ENDS



.SUBCKT CMRR_OLD   VI  VO  VX GNDF PARAMS: CMRR = 130 FCMRR = 1.6K
.PARAM PI = 3.141592
.PARAM RCMRR = 1
.PARAM GCMRR = {PWR(10,-CMRR/20)/RCMRR}
.PARAM LCMRR = {RCMRR/(2*PI*FCMRR)}
G1  GNDF 1 VX GNDF {GCMRR}
R1  1 2 {RCMRR}
L1  2 GNDF {LCMRR}
E1  VI VO 1 GNDF 1
.ENDS

.SUBCKT CMRR_NEW   VI  VO VX GNDF PARAMS: CMRR = 130 FCMRR = 1.6K
.PARAM PI = 3.141592
.PARAM RCMRR = 1
.PARAM GCMRR = {PWR(10,-CMRR/20)/RCMRR}
.PARAM LCMRR = {RCMRR/(2*PI*FCMRR)}
G1  GNDF 1 VX GNDF {GCMRR}
R1  1 2 {RCMRR}
L1  2 GNDF {LCMRR}

EA  101 GNDF 1 GNDF 1
GRA  101 102 VALUE = {V(101,102)/1e6}
CA  102 GNDF 1e3
EB  1 1a VALUE = {V(102,GNDF)}

E1  VI VO 1a GNDF 1
.ENDS



.SUBCKT DLS 1 2 VDD_OLD VSS_OLD VDD_NEW VSS_NEW
E1 3 0 VALUE = { IF( V(1) < (V(VDD_OLD)+V(VSS_OLD))/2, V(VSS_NEW), V(VDD_NEW) ) }
R1 3 2 1
C1 2 0 1p
.ENDS


.SUBCKT DLSINV 1 2 VDD_OLD VSS_OLD VDD_NEW VSS_NEW
E1 3 0 VALUE = { IF( V(1) > (V(VDD_OLD)+V(VSS_OLD))/2, V(VSS_NEW), V(VDD_NEW) ) }
R1 3 2 1
C1 2 0 1p
.ENDS


.SUBCKT SWITCH_IDEAL A B C PARAMS:
+ Ron  = 100m
+ Roff = 0.1G





G1 A B VALUE = { V(A,B) * 1 / ( Roff/2 * TANH( 0 - ( 20*V(C) - 5 ) ) + Roff/2 + Ron )  }

R1 A 0 1000G
R2 B 0 1000G

.ENDS









.MODEL VINRANGE_DIDEAL         D N=1m
.MODEL RECOVERYCIRCUIT_DIDEAL  D N=1m 
.MODEL OUTPUTCIR_ISC_DIDEAL    D N=0.1m
.MODEL OUTPUTCIR_VOHVOL_DIDEAL D N=1m 
.MODEL DBASIC D

