* THS4561 - Rev. D
* Created by Hasan Babiker; 2021-11-01
* Created with Green-Williams-Lis Current Sense Amp Macro-model Architecture
* Copyright 2021 by Texas Instruments Corporation
******************************************************
* MACRO-MODEL SIMULATED PARAMETERS:
******************************************************
* AC PARAMETERS
**********************
* CLOSED-LOOP OUTPUT IMPEDANCE VS. FREQUENCY (Zout vs. Freq.)
* CLOSED-LOOP GAIN AND PHASE VS. FREQUENCY  WITH RL, CL EFFECTS (Acl vs. Freq.)
* COMMON-MODE REJECTION RATIO VS. FREQUENCY (CMRR vs. Freq.)
* POWER SUPPLY REJECTION RATIO VS. FREQUENCY (PSRR vs. Freq.)
* INPUT VOLTAGE NOISE DENSITY VS. FREQUENCY (en vs. Freq.)
**********************
* DC PARAMETERS
**********************
* INPUT COMMON-MODE VOLTAGE RANGE (Vcm)
* GAIN ERROR (Eg)
* INPUT BIAS CURRENT VS. INPUT COMMON-MODE VOLTAGE (Ib vs. Vcm)
* INPUT OFFSET VOLTAGE VS. TEMPERATURE (Vos vs. Temp)
* OUTPUT VOLTAGE SWING vs. OUTPUT CURRENT (Vout vs. Iout)
* SHORT-CIRCUIT OUTPUT CURRENT (Isc)
* QUIESCENT CURRENT (Iq)
**********************
* TRANSIENT PARAMETERS
**********************
* SLEW RATE (SR)
* SETTLING TIME VS. CAPACITIVE LOAD (ts)
* OVERLOAD RECOVERY TIME (tor)
******************************************************
.subckt THS4561 IN+ IN- VCC VEE OUT+ OUT- VOCM
******************************************************
.MODEL R_NOISELESS RES (T_ABS=-273.15)
C_C1         MID CLAMP  1.41E-9   
C_C10         MID N2114979  1E-15   
C_C11         N2115231 MID  1E-15   
C_C1A         N2115327 N2114145  1.989E-14   
C_C1A1         N2114885 N2114927  3E-15   
C_C1A11         N2111955 N2111989  4.685E-6   
C_C1A12         N2113291 N2113331  7.958E-14   
C_C1A13         MID VOCM  1.5E-12   
C_C1A19         N2116903 N2116955  1.29E-14   
C_C1A2         N2115007 N2115121  2.375E-16   
C_C1A20         N2117625 N2117699  4.421E-15   
C_C1A21         N2119079 N2119089  4.421E-15   
C_C1A22         N2119415 N2119449  3.183E-15   
C_C1A23         N2119981 N2119991  2.653E-16   
C_C1A24         MID N2120999  4.547E-12   
C_C1A25         N2112817 N2112827  9.94E-17   
C_C1A26         N2113751 N2113777  7.234E-17   
C_C1A27         MID N2117451  3.183E-14   
C_C1A28         N2117489 N2117499  1.768E-14   
C_C1A29         N2117779 N2117855  1.768E-14   
C_C1A3         N2115243 N2115285  1E-16   
C_C1A30         N2118417 N2118441  3.183E-16   
C_C1A31         N2118761 PSRR+  3.537E-16   
C_C1A38         N2120785 N2120877  7.958E-14   
C_C1A39         MID N2114057  2.5E-11   
C_C1A4         MID N2115497  8.842E-14   
C_C1A40         MID N2110735  1.2E-11   
C_C1B         MID N2112369  7.958E-14   
C_C1B1         MID N2111543  7.958E-14   
C_C1B2         MID N2111751  7.958E-14   
C_C33         N2116699 0  1E-15   
C_C34         N2116721 0  1   
C_C35         N2116851 0  1E-15   
C_C37         INN MID  1E-15   
C_C38         MID N2113145  5.2E-12   
C_C7         INP MID  1E-15   
C_C8         MID N2113479  1E-15   
C_C9         MID N2115707  1E-15   
C_C_DIFF         ESDN ESDP  2.4E-12   
C_C_VIMON         MID VIMON  1E-12   
C_C_VIMON1         VIMON2 MID  1E-12   
C_C_VOUT_S         MID VOUT_S  1E-12   
E_E3         N2119879 MID OUT+ OUT- 1
E_E6         MID 0 N2116721 0 1
E_E7         N2112217 MID ZO+ ZO- 1
E_E8         N2115339 MID VEE_CLP VCC_CLP 1
E_E9         N2114333 MID VCC_CLP VEE_CLP 1
G_G1         N2115327 MID ESDP MID -2.665E-4
G_G100         N2120785 MID N2113331 MID -3.5
G_G101         ZO- MID N2110735 MID -10E-3
G_G102         N2110735 MID N2114057 MID -1E-3
G_G103         N2110769 MID VOCM MID -1
G_G12         N2112911 MID CLAMP MID -1
G_G2         N2116317 N2116311 N2115093 MID -1E-3
G_G3         N2115007 MID N2114927 MID -21
G_G36         VCC_B 0 VCC 0 -1
G_G37         VEE_B 0 VEE 0 -1
G_G4         N2115243 MID N2115121 MID -1.833
G_G6         N2110521 N2110513 PSRR+ PSRR- -1E-3
G_G61         N2112285 MID N2111989 MID -1
G_G68         N2114057 MID N2119693 VOUT_CM -1
G_G69         ZO+ MID N2110735 MID -10E-3
G_G74         N2115457 MID N2115285 MID -1
G_G75         N2114885 MID N2114145 MID -2.111
G_G77         N2116903 MID VEE_B MID -4.381E-5
G_G78         N2117625 MID N2116955 MID -4.167
G_G79         N2119079 MID N2117699 MID -5.556
G_G8         VCC_CLP MID N2113479 MID -1E-3
G_G80         N2119415 MID N2119089 MID -2
G_G81         N2119981 MID N2119449 MID -8.333
G_G82         N2120867 MID N2119991 MID -1
G_G83         N2112817 MID N2113281 MID -3.125
G_G84         N2113751 MID N2112827 MID -2.273
G_G85         N2117393 MID N2113777 MID -1
G_G86         N2117489 MID VCC_B MID -1.982E-6
G_G87         N2117779 MID N2117499 MID -1.5E1
G_G88         N2118417 MID N2117855 MID -3E1
G_G89         N2118761 MID N2118441 MID -3.333E1
G_G9         VEE_CLP MID N2115707 MID -1E-3
G_G96         N2111501 MID N2111695 MID -1
G_G97         N2111709 MID N2111511 MID -1
G_G98         N2111955 MID N2113145 N2112217 -3.453E2
G_G99         N2113291 MID N2111743 MID -3.5
G_GB3         AOLZO+ AOLZO- N2120877 MID -90.91
I_I_B         MID N2116651 DC 369.666E-9  
I_I_OS         MID ESDN DC 368.333E-9  
I_I_Q         VCC VEE DC 825E-6  
L_L4         N2112911 N2113145  300E-9  
R_R1         ESDP IN+ R_NOISELESS 10E-3
R_R10         ESDN N2121557 R_NOISELESS 1E-3
R_R107         VCC_B 0 R_NOISELESS 1
R_R108         N2116721 0 R_NOISELESS 1E12
R_R109         VEE_B 0 R_NOISELESS 1
R_R110         VCC_B N2116699 R_NOISELESS 1E-3
R_R111         N2116699 N2116721 R_NOISELESS 1E6
R_R112         N2116721 N2116851 R_NOISELESS 1E6
R_R113         N2116851 VEE_B R_NOISELESS 1E-3
R_R147         MID N2111955 R_NOISELESS 1
R_R148         MID N2112285 R_NOISELESS 1
R_R168         VCC_B VOCM R_NOISELESS 399.4833E3
R_R169         VOCM VEE_B R_NOISELESS 400.5167E3
R_R186         ZO- AOLZO- R_NOISELESS 2.81E5
R_R187         ZO+ AOLZO+ R_NOISELESS 2.81E5
R_R188         ZO+ ZO- R_NOISELESS 5.62E4
R_R1A         N2115327 N2114145 R_NOISELESS 1E8
R_R1A1         N2114885 N2114927 R_NOISELESS 1E8
R_R1A12         N2111989 N2111955 R_NOISELESS 10E3
R_R1A16         N2116903 N2116955 R_NOISELESS 1E8
R_R1A17         N2117625 N2117699 R_NOISELESS 1E8
R_R1A18         N2119079 N2119089 R_NOISELESS 1E8
R_R1A19         N2119415 N2119449 R_NOISELESS 1E8
R_R1A2         N2115007 N2115121 R_NOISELESS 1E8
R_R1A20         N2119981 N2119991 R_NOISELESS 1E8
R_R1A21         N2112817 N2112827 R_NOISELESS 1E8
R_R1A22         N2113751 N2113777 R_NOISELESS 1E8
R_R1A23         N2117489 N2117499 R_NOISELESS 1E8
R_R1A24         N2117779 N2117855 R_NOISELESS 1E8
R_R1A25         N2118417 N2118441 R_NOISELESS 1E8
R_R1A26         N2118761 PSRR+ R_NOISELESS 1E8
R_R1A3         N2115243 N2115285 R_NOISELESS 1E8
R_R1A30         N2113331 N2113291 R_NOISELESS 10E3
R_R1A31         N2120877 N2120785 R_NOISELESS 10E3
R_R1A4         N2115457 N2115093 R_NOISELESS 3.5E4
R_R1A5         N2115497 N2115093 R_NOISELESS 10E3
R_R1B         N2112369 N2111695 R_NOISELESS 10E3
R_R1B1         N2111543 N2111511 R_NOISELESS 10E3
R_R1B2         N2111751 N2111743 R_NOISELESS 10K
R_R2         ESDN IN- R_NOISELESS 10E-3
R_R200         AOLZO- VOUT_CM R_NOISELESS 0.5
R_R201         N2121337 MID R_NOISELESS 1E9
R_R202         INN N2121501 R_NOISELESS 1E-3
R_R203         MID N2121501 R_NOISELESS 1
R_R204         MID N2110359 R_NOISELESS 1E9
R_R205         MID CLAMP R_NOISELESS 1E6
R_R208         N2115457 MID R_NOISELESS 1
R_R209         N2116903 MID R_NOISELESS 1
R_R21         N2110513 N2110521 R_NOISELESS 1E3
R_R210         N2117625 MID R_NOISELESS 1
R_R211         N2119079 MID R_NOISELESS 1
R_R212         N2119415 MID R_NOISELESS 1
R_R213         N2119981 MID R_NOISELESS 1
R_R214         N2112817 MID R_NOISELESS 1
R_R215         N2113751 MID R_NOISELESS 1
R_R216         N2117489 MID R_NOISELESS 1
R_R217         N2117779 MID R_NOISELESS 1
R_R218         N2118417 MID R_NOISELESS 1
R_R219         N2118761 MID R_NOISELESS 1
R_R224         MID N2113145 R_NOISELESS 425
R_R228         MID N2111501 R_NOISELESS 1
R_R229         MID N2111709 R_NOISELESS 1
R_R230         MID N2113291 R_NOISELESS 1
R_R231         MID N2120785 R_NOISELESS 1
R_R232         N2115327 MID R_NOISELESS 1
R_R233         N2114885 MID R_NOISELESS 1
R_R234         N2115007 MID R_NOISELESS 1
R_R235         N2115243 MID R_NOISELESS 1
R_R237         N2110797 MID R_NOISELESS 1E9
R_R238         MID N2110731 R_NOISELESS 1E9
R_R239         N2119693 MID R_NOISELESS 1
R_R240         N2110735 MID R_NOISELESS 1E3
R_R241         N2110769 N2110775  19K TC=0,0 
R_R242         N2110769 MID R_NOISELESS 1
R_R243         MID ZO- R_NOISELESS 100
R_R244         MID ZO+ R_NOISELESS 100
R_R25         MID N2113179 R_NOISELESS 1E9
R_R251         MID N2265712 R_NOISELESS 1E9
R_R26         N2115829 MID R_NOISELESS 1E9
R_R27         MID N2116545 R_NOISELESS 1
R_R28         INP N2116545 R_NOISELESS 1E-3
R_R29         N2113447 VCC_B R_NOISELESS 1E3
R_R2A         N2114145 MID R_NOISELESS 2E5
R_R2A1         N2114927 MID R_NOISELESS 9E7
R_R2A12         MID N2111989 R_NOISELESS 2.904E1
R_R2A19         N2116955 MID R_NOISELESS 2.466E5
R_R2A2         N2115121 MID R_NOISELESS 5E6
R_R2A20         N2117699 MID R_NOISELESS 3.158E7
R_R2A21         N2119089 MID R_NOISELESS 2.195E7
R_R2A22         N2119449 MID R_NOISELESS 1E8
R_R2A23         N2119991 MID R_NOISELESS 1.364E7
R_R2A24         N2120867 MID R_NOISELESS 1
R_R2A25         N2120867 N2113281 R_NOISELESS 1.667E3
R_R2A26         N2113281 N2120999 R_NOISELESS 1E4
R_R2A27         N2112827 MID R_NOISELESS 4.706E7
R_R2A28         N2113777 MID R_NOISELESS 7.857E7
R_R2A29         N2117393 MID R_NOISELESS 1
R_R2A3         N2115285 MID R_NOISELESS 1.2E8
R_R2A30         N2117393 PSRR- R_NOISELESS 1.15E5
R_R2A31         PSRR- N2117451 R_NOISELESS 1E4
R_R2A32         N2117499 MID R_NOISELESS 9.89E6
R_R2A33         N2117855 MID R_NOISELESS 7.143E6
R_R2A34         N2118441 MID R_NOISELESS 3.448E6
R_R2A35         PSRR+ MID R_NOISELESS 3.093E6
R_R2A39         MID N2113331 R_NOISELESS 4E3
R_R2A40         MID N2120877 R_NOISELESS 4E3
R_R2B         N2111695 N2112285 R_NOISELESS 8E4
R_R2B1         N2111511 N2111501 R_NOISELESS 2E4
R_R2B2         N2111743 N2111709 R_NOISELESS 1.7E4
R_R3         N2110619 N2110715 R_NOISELESS 1.5E5
R_R30         N2113479 N2113447 R_NOISELESS 1E-3
R_R31         VCC_CLP MID R_NOISELESS 1E3
R_R32         N2110459 VEE_B R_NOISELESS 1E3
R_R33         N2115707 N2110459 R_NOISELESS 1E-3
R_R34         VEE_CLP MID R_NOISELESS 1E3
R_R35         MID N2114333 R_NOISELESS 1E9
R_R36         N2114903 MID R_NOISELESS 1
R_R37         N2114979 N2114903 R_NOISELESS 1E-3
R_R38         N2115231 N2115201 R_NOISELESS 1E-3
R_R39         MID N2115201 R_NOISELESS 1
R_R40         MID N2115339 R_NOISELESS 1E9
R_R5         VOUT_CM AOLZO+ R_NOISELESS 0.5
R_R60         MID AOL1 R_NOISELESS 1E6
R_R62         MID N2112911 R_NOISELESS 1
R_R8         N2116311 N2116317 R_NOISELESS 1E3
R_R81         MID N2118801 R_NOISELESS 1E9
R_R83         MID N2119879 R_NOISELESS 1E9
R_R9         N2116317 N2110513 R_NOISELESS 1E-3
R_R_VIMON         VIMON N2118801 R_NOISELESS 100
R_R_VIMON1         N2265712 VIMON2 R_NOISELESS 100
R_R_VOUT_S         VOUT_S N2119879 R_NOISELESS 100
V_VCM_MAX         N2115829 VCC_B -1.1
V_VCM_MAX1         N2121337 VCC_B -1.1
V_VCM_MAX2         N2110797 VCC_B -1.1
V_VCM_MAX3         N2110725 N2110775 0.25E-3
V_VCM_MIN         N2113179 VEE_B -0.1
V_VCM_MIN1         N2110359 VEE_B -0.1
V_VCM_MIN2         N2110731 VEE_B 0.45
X_AOL_1         INP INN MID AOL1 AOL_1 
X_AOL_2         AOL1 MID MID CLAMP AOL_2_THS4561 
X_CLAWN         MID VIMON VEE_B N2110459 CLAWN_THS4561 
X_CLAWP         VIMON MID N2113447 VCC_B CLAWP_THS4561 
X_CLAW_AMP         N2114333 N2115339 VOUT_S MID N2114903 N2115201 CLAMP_AMP_LO_THS4561 
X_CLAW_SRC         N2114979 N2115231 CLAMP MID CLAW_SRC_THS4561 
X_ESD_OUT         OUT+ VCC VEE ESD_OUT_THS4561 
X_ESD_OUT1         OUT- VCC VEE ESD_OUT_THS4561 
X_H3    OUT+ ZO+ N2118801 MID 08_OP_AMP_COMPLETE_H3_THS4561 
X_H4    OUT- ZO- N2265712 MID 08_OP_AMP_COMPLETE_H4_THS4561 
X_IQ_N         MID VIMON MID VEE IQ_SRC_THS4561
X_IQ_N1         MID VIMON2 MID VEE IQ_SRC_THS4561
X_IQ_P         VIMON MID VCC MID IQ_SRC_THS4561
X_IQ_P1         VIMON2 MID VCC MID IQ_SRC_THS4561
X_I_NN         ESDN MID FEMT_THS4561 
X_I_NP         N2116651 MID FEMT_THS4561 
X_S13    N2114057 MID N2114057 MID 08_OP_AMP_COMPLETE_S13_THS4561 
X_S14    MID N2114057 MID N2114057 08_OP_AMP_COMPLETE_S14_THS4561 
X_S15    VEE_CLP ZO+ ZO+ MID 08_OP_AMP_COMPLETE_S15_THS4561 
X_S16    VEE_CLP ZO- ZO- MID 08_OP_AMP_COMPLETE_S16_THS4561 
X_S17    ZO- VCC_CLP ZO- MID 08_OP_AMP_COMPLETE_S17_THS4561 
X_S9    ZO+ VCC_CLP ZO+ MID 08_OP_AMP_COMPLETE_S9_THS4561 
X_U1         ESDP N2116651 VNSE_THS4561 
X_VCM_CLAMP         N2110521 MID N2116545 MID N2115829 N2113179 VCM_CLAMP_THS4561 
X_VCM_CLAMP1         N2121557 MID N2121501 MID N2121337 N2110359 VCM_CLAMP_THS4561 
X_VCM_CLAMP2         N2110725 MID N2119693 MID N2110797 N2110731 VCM_CLAMP_THS4561 
X_VOS_DRIFT         N2116311 N2116651 VOS_DRIFT_THS4561 
X_W1    N2110619 ESDN ESDP ESDN 08_OP_AMP_COMPLETE_W1_THS4561 
X_W2    N2110715 ESDP ESDP ESDN 08_OP_AMP_COMPLETE_W2_THS4561 
.ENDS  THS4561
*
.SUBCKT 08_OP_AMP_COMPLETE_H3_THS4561 1 2 3 4  
H_H3         3 4 VH_H3 -1E3
VH_H3         1 2 0V
.ENDS  08_OP_AMP_COMPLETE_H3_THS4561
*
.SUBCKT 08_OP_AMP_COMPLETE_H4_THS4561 1 2 3 4  
H_H4         3 4 VH_H4 -1E3
VH_H4         1 2 0V
.ENDS  08_OP_AMP_COMPLETE_H4_THS4561
*
.SUBCKT 08_OP_AMP_COMPLETE_S13_THS4561 1 2 3 4  
S_S13         3 4 1 2 _S13
RS_S13         1 2 1G
.MODEL         _S13 VSWITCH ROFF=270K RON=1 VOFF=11 VON=12
.ENDS  08_OP_AMP_COMPLETE_S13_THS4561
*
.SUBCKT 08_OP_AMP_COMPLETE_S14_THS4561 1 2 3 4  
S_S14         3 4 1 2 _S14
RS_S14         1 2 1G
.MODEL         _S14 VSWITCH ROFF=270K RON=1 VOFF=11 VON=12
.ENDS  08_OP_AMP_COMPLETE_S14_THS4561
*
.SUBCKT 08_OP_AMP_COMPLETE_S15_THS4561 1 2 3 4  
S_S15         3 4 1 2 _S15
RS_S15         1 2 1G
.MODEL         _S15 VSWITCH ROFF=1E6 RON=1 VOFF=-0.1 VON=0.1
.ENDS  08_OP_AMP_COMPLETE_S15_THS4561
*
.SUBCKT 08_OP_AMP_COMPLETE_S16_THS4561 1 2 3 4  
S_S16         3 4 1 2 _S16
RS_S16         1 2 1G
.MODEL         _S16 VSWITCH ROFF=1E6 RON=1 VOFF=-0.1 VON=0.1
.ENDS  08_OP_AMP_COMPLETE_S16_THS4561
*
.SUBCKT 08_OP_AMP_COMPLETE_S17_THS4561 1 2 3 4  
S_S17         3 4 1 2 _S17
RS_S17         1 2 1G
.MODEL         _S17 VSWITCH ROFF=1E6 RON=1 VOFF=-0.1 VON=0.1
.ENDS  08_OP_AMP_COMPLETE_S17_THS4561
*
.SUBCKT 08_OP_AMP_COMPLETE_S9_THS4561 1 2 3 4  
S_S9         3 4 1 2 _S9
RS_S9         1 2 1G
.MODEL         _S9 VSWITCH ROFF=1E6 RON=1 VOFF=-0.1 VON=0.1
.ENDS  08_OP_AMP_COMPLETE_S9_THS4561
*
.SUBCKT 08_OP_AMP_COMPLETE_W1_THS4561 1 2 3 4  
W_W1         3 4 VW_W1 _W1
VW_W1         1 2 0V
.MODEL         _W1 ISWITCH ROFF=10MEG RON=1 IOFF=6U ION=6.667U
.ENDS  08_OP_AMP_COMPLETE_W1_THS4561
*
.SUBCKT 08_OP_AMP_COMPLETE_W2_THS4561 1 2 3 4  
W_W2         3 4 VW_W2 _W2
VW_W2         1 2 0V
.MODEL         _W2 ISWITCH ROFF=10MEG RON=1 IOFF=6U ION=6.667U
.ENDS  08_OP_AMP_COMPLETE_W2_THS4561
*
.SUBCKT AOL_1 VC+ VC- IOUT+ IOUT-
.PARAM GAIN = 0.95E-3
.PARAM IPOS = .5
.PARAM INEG = -.5
G1 IOUT+ IOUT- VALUE={LIMIT(GAIN*V(VC+,VC-),INEG,IPOS)}
.ENDS  AOL_1
*
.SUBCKT AOL_2_THS4561 VC+ VC- IOUT+ IOUT-
.PARAM GAIN = 601.5E-6
.PARAM IPOS = 0.37183
.PARAM INEG = -0.371835
G1 IOUT+ IOUT- VALUE={LIMIT(GAIN*V(VC+,VC-),INEG,IPOS)}
.ENDS  AOL_2_THS4561
*
.SUBCKT CLAMP_AMP_LO_THS4561 VC+ VC- VIN COM VO+ VO-
.PARAM G=1
GVO+ COM VO+ VALUE = {IF(V(VIN,COM)>V(VC+,COM),((V(VIN,COM)-V(VC+,COM))*G),0)}
GVO- COM VO- VALUE = {IF(V(VIN,COM)<V(VC-,COM),((V(VC-,COM)-V(VIN,COM))*G),0)}
.ENDS  CLAMP_AMP_LO_THS4561
*
.SUBCKT CLAWN_THS4561 VC+ VC- IOUT+ IOUT-
G1 IOUT+ IOUT- TABLE {(V(VC+,VC-))} =
+(0, 0.1E-3)
+(40, 0.65E-3)
+(50, 0.899E-3)
+(51, 0.99E-3)
+(52, 2.5E-3)
+(53, 4.6E-3)
+(54, 5.6E-3)
.ENDS  CLAWN_THS4561
*
.SUBCKT CLAWP_THS4561 VC+ VC- IOUT+ IOUT-
G1 IOUT+ IOUT- TABLE {(V(VC+,VC-))} =
+(0.00, 0.02E-3)
+(15, 0.43E-3)
+(25, 0.672E-3)
+(32, 0.989E-3)
+(37, 1.38E-3)
+(42, 2.31E-3)
+(44, 3.03E-3)
+(46, 4.118E-3)
+(48, 5.8E-3)
.ENDS  CLAWP_THS4561
*
.SUBCKT CLAW_SRC_THS4561 VC+ VC- IOUT+ IOUT-
.PARAM GAIN = 40
.PARAM IPOS = 20
.PARAM INEG = -20
G1 IOUT+ IOUT- VALUE={LIMIT(GAIN*V(VC+,VC-),INEG,IPOS)}
.ENDS  CLAW_SRC_THS4561
*
.SUBCKT ESD_OUT_THS4561 OUT VCC VEE
.MODEL ESD_SW VSWITCH(RON=50 ROFF=1E12 VON=500E-3 VOFF=450E-3)
S1 VCC OUT OUT VCC ESD_SW
S2 OUT VEE VEE OUT ESD_SW
.ENDS  ESD_OUT_THS4561
*
.SUBCKT FEMT_THS4561 1 2
.PARAM FLWF=1
.PARAM NLFF=8.50E3
.PARAM NVRF=346.3
.PARAM GLFF={PWR(FLWF,0.25)*NLFF/1164}
.PARAM RNVF={1.184*PWR(NVRF,2)}
.MODEL DVNF D KF={PWR(FLWF,0.5)/1E11} IS=1.0E-16
I1 0 7 10E-3
I2 0 8 10E-3
D1 7 0 DVNF
D2 8 0 DVNF
E1 3 6 7 8 {GLFF}
R1 3 0 1E9
R2 3 0 1E9
R3 3 6 1E9
E2 6 4 5 0 10
R4 5 0 {RNVF}
R5 5 0 {RNVF}
R6 3 4 1E9
R7 4 0 1E9
G1 1 2 3 4 1E-6
.ENDS  FEMT_THS4561
*
.SUBCKT IQ_SRC_THS4561 VC+ VC- IOUT+ IOUT-
.PARAM GAIN = 1E-3
G1 IOUT+ IOUT- VALUE={IF( (V(VC+,VC-)<=0),0,GAIN*V(VC+,VC-) )}
.ENDS  IQ_SRC_THS4561
*
.SUBCKT VCM_CLAMP_THS4561 VIN+ VIN- IOUT- IOUT+ VP+ VP-
.PARAM GAIN = 1
G1 IOUT+ IOUT- VALUE={LIMIT(GAIN*V(VIN+,VIN-),V(VP-,VIN-), V(VP+,VIN-))}
.ENDS  VCM_CLAMP_THS4561
*
.SUBCKT VNSE_THS4561 1 2
.PARAM FLW=1
.PARAM NLF=10.82
.PARAM NVR=4.04
.PARAM GLF={PWR(FLW,0.25)*NLF/1164}
.PARAM RNV={1.184*PWR(NVR,2)}
.MODEL DVN D KF={PWR(FLW,0.5)/1E11} IS=1.0E-16
I1 0 7 10E-3
I2 0 8 10E-3
D1 7 0 DVN
D2 8 0 DVN
E1 3 6 7 8 {GLF}
R1 3 0 1E9
R2 3 0 1E9
R3 3 6 1E9
E2 6 4 5 0 10
R4 5 0 {RNV}
R5 5 0 {RNV}
R6 3 4 1E9
R7 4 0 1E9
E3 1 2 3 4 1
.ENDS  VNSE_THS4561
*
.SUBCKT VOS_DRIFT_THS4561 VOS+ VOS-
.PARAM DC = 48.253E-6
.PARAM POL = 1
.PARAM DRIFT = 0.5E-6
E1 VOS+ VOS- VALUE={DC+POL*DRIFT*(TEMP-27)}
.ENDS  VOS_DRIFT_THS4561
*
