* THS4567 - Rev. A
* Created by Sean Cashin; 2020-10-07
* Created with Green-Williams-Lis Current Sense Amp Macro-model Architecture
* Copyright 2020 by Texas Instruments Corporation
******************************************************
* MACRO-MODEL SIMULATED PARAMETERS:
******************************************************
* AC PARAMETERS
**********************
* CLOSED-LOOP OUTPUT IMPEDANCE VS. FREQUENCY (Zout vs. Freq.)
* CLOSED-LOOP GAIN AND PHASE VS. FREQUENCY  WITH RL, CL EFFECTS (Acl vs. Freq.)
* COMMON-MODE REJECTION RATIO VS. FREQUENCY (CMRR vs. Freq.)
* POWER SUPPLY REJECTION RATIO VS. FREQUENCY (PSRR vs. Freq.)
* INPUT VOLTAGE NOISE DENSITY VS. FREQUENCY (en vs. Freq.)
**********************
* DC PARAMETERS
**********************
* INPUT COMMON-MODE VOLTAGE RANGE (Vcm)
* GAIN ERROR (Eg)
* INPUT BIAS CURRENT VS. INPUT COMMON-MODE VOLTAGE (Ib vs. Vcm)
* INPUT OFFSET VOLTAGE VS. TEMPERATURE (Vos vs. Temp)
* OUTPUT VOLTAGE SWING vs. OUTPUT CURRENT (Vout vs. Iout)
* SHORT-CIRCUIT OUTPUT CURRENT (Isc)
* QUIESCENT CURRENT (Iq)
**********************
* TRANSIENT PARAMETERS
**********************
* SLEW RATE (SR)
* SETTLING TIME VS. CAPACITIVE LOAD (ts)
* OVERLOAD RECOVERY TIME (tor)
******************************************************
.subckt THS4567 IN+ IN- OUT+ OUT- VOCM VICM VCC VEE Icm_En
******************************************************
.MODEL R_NOISE RES (T_ABS=27)
.MODEL R_NOISELESS RES (T_ABS=-273.15)
C_C1         MID CLAMP  530E-12   
C_C10         MID N1220320  1E-15   
C_C11         N1220432 MID  1E-15   
C_C1A13         MID VOCM  1.5E-12   
C_C1A14         MID AOLVOCM  6.9N   
C_C1A16         N1353752 N1353762  69E-12   
C_C1A17         N1369982 N1369972  8E-12   
C_C1A18         N1380376 N1380366  8E-12   
C_C1A19         N1380396 N1380386  10E-9   
C_C1A20         N1448121 N798898  1E-6   
C_C1A26         MID VICM  1.5E-12   
C_C1A27         N798898 N1447986  2.2E-12   
C_C1A28         N1448751 N799546  1E-6   
C_C1A29         N799546 N1448921  2.2E-12   
C_C1A9         N782670 N782680  138E-12   
C_C1B1         N1353772 N1353782  69E-12   
C_C33         N406634 0  1E-15   
C_C34         N317950 0  1   
C_C35         N406794 0  1E-15   
C_C37         INN MID  1E-15   
C_C38         MID AOL_3  0.5E-9   
C_C39         N1296356 MID  1E-15   
C_C40         MID N1289772  1.5E-9   
C_C7         INP MID  1E-15   
C_C8         MID N1116251  1E-15   
C_C9         MID N1117233  1E-15   
C_C_DIFF         ESDN ESDP  0.9E-12   
C_C_VCLP         VCLP MID  1E-12   
C_C_VIMON         MID VIMON  1E-12   
C_C_VOUT_S         MID VOUT_S  1E-12   
E_E10         N798898 N799546 AOL_3 MID 1
E_E2         N91498 MID AOL_3 MID 1
E_E3         N112292 MID OUT+ OUT- 1
E_E6         MID 0 N317950 0 1
E_E8         N1220502 MID VEE_CLP VCC_CLP 1
E_E9         N1220118 MID VCC_CLP VEE_CLP 1
G_G2         N10570 N10561 N1353782 MID -1E-3
G_G36         VCC_B 0 VCC 0 -1
G_G37         VEE_B 0 VEE 0 -1
G_G58         N782670 MID VCC_B MID -0.022
G_G6         N25816 N11984 N1369972 N1380366 -1E-3
G_G68         AOLVOCM MID N1242451 VOUT_CM -1
G_G69         ZO+ MID AOLVOCM MID -0.001
G_G70         OUT- MID AOLVOCM MID -0.001
G_G72         N1290095 MID N1289772 MID -1.04
G_G73         N1289772 MID CLAMP MID -1
G_G74         N1353752 MID ESDP MID -0.31
G_G75         N1353772 MID N1353762 MID -15
G_G77         N1369982 MID N782680 MID -1
G_G78         N1380376 MID N1380386 MID -10
G_G79         N1380396 MID VEE_B MID -23E-6
G_G8         VCC_CLP MID N1116251 MID -1E-3
G_G80         N1408053 N1408065 VICM VIN_CM -250E-6
G_G9         VEE_CLP MID N1117233 MID -1E-3
I_IB         MID N06458 DC 40PADC  
I_IOS         MID ESDN DC 0ADC  
I_I_B1         MID VOCM DC -0.1E-6  
I_I_B2         MID VICM DC -0.1E-6  
I_I_Q         VCC VEE DC 1.7E-3  
L_L1         N1290095 AOL_3  2E-9  
L_L3         N1448115 ZO+  250E-9  
L_L4         N1447986 N1448108  417E-12  
L_L5         N1448823 OUT-  250E-9  
L_L6         N1448921 N1448925  417E-12  
R_R1         ESDP IN+ R_NOISELESS 10E-3
R_R10         ESDN N1151745 R_NOISELESS 1E-3
R_R107         VCC_B 0 R_NOISELESS 1
R_R108         N317950 0 R_NOISELESS 1E12
R_R109         VEE_B 0 R_NOISELESS 1
R_R110         VCC_B N406634 R_NOISELESS 1E-3
R_R111         N406634 N317950 R_NOISELESS 1E6
R_R112         N317950 N406794 R_NOISELESS 1E6
R_R113         N406794 VEE_B R_NOISELESS 1E-3
R_R142         N782670 MID R_NOISELESS 1
R_R168         VCC VOCM R_NOISE 400E3
R_R169         VOCM VEE R_NOISE 400E3
R_R184         MID ZO+ R_NOISELESS 1K
R_R185         MID OUT- R_NOISELESS 1K
R_R188         VOUT_CM OUT- R_NOISELESS 70K
R_R1A10         N782670 N782680 R_NOISELESS 10E3
R_R1A14         N1353752 N1353762 R_NOISELESS 10E3
R_R1A15         N1369982 N1369972 R_NOISELESS 10E3
R_R1A16         N1380376 N1380366 R_NOISELESS 10E3
R_R1A17         N1380396 N1380386 R_NOISELESS 10E3
R_R1B1         N1353772 N1353782 R_NOISELESS 10E3
R_R2         ESDN IN- R_NOISELESS 10E-3
R_R201         N1151603 MID R_NOISELESS 1E9
R_R202         INN N1151717 R_NOISELESS 1E-3
R_R203         MID N1151717 R_NOISELESS 1
R_R204         MID N1151839 R_NOISELESS 1E9
R_R205         MID CLAMP R_NOISELESS 1E6
R_R206         VCC VEE  12142 TC=0,0 
R_R207         MID N1290095 R_NOISELESS 1
R_R208         N1296228 MID R_NOISELESS 1E9
R_R209         N1296356 N1296342 R_NOISELESS 1E-3
R_R21         N11984 N25816 R_NOISELESS 1E3
R_R210         MID N1296342 R_NOISELESS 1
R_R211         MID N1296466 R_NOISELESS 1E9
R_R218         MID N1289772 R_NOISELESS 1
R_R219         N1353752 MID R_NOISELESS 1
R_R220         N1353772 MID R_NOISELESS 1
R_R223         N1369982 MID R_NOISELESS 1
R_R224         N1380376 MID R_NOISELESS 1
R_R225         N1380396 MID R_NOISELESS 1
R_R226         ZO+ VOUT_CM R_NOISELESS 70K
R_R227         N798898 N1448121  530 TC=0,0 
R_R228         N1448115 N1448121  8 TC=0,0 
R_R229         ZO+ N1448108  1M TC=0,0 
R_R230         N1174155 VIN_CM R_NOISELESS 43E9
R_R231         VCC VICM R_NOISE 400E3
R_R232         VICM VEE R_NOISE 400E3
R_R234         N799546 N1448751  530 TC=0,0 
R_R235         N1448823 N1448751  8 TC=0,0 
R_R236         OUT- N1448925  1M TC=0,0 
R_R237         N1408065 N1408053 R_NOISELESS 1E3
R_R25         MID N28602 R_NOISELESS 1E9
R_R26         N30136 MID R_NOISELESS 1E9
R_R27         MID N30913 R_NOISELESS 1
R_R28         INP N30913 R_NOISELESS 1E-3
R_R29         N1116229 VCC_B R_NOISELESS 1E3
R_R2A10         N782680 MID R_NOISELESS 11.5
R_R2A14         N1353762 MID R_NOISELESS 23
R_R2A15         N1369972 MID R_NOISELESS 315
R_R2A16         N1380366 MID R_NOISELESS 2500
R_R2A17         N1380386 MID R_NOISELESS 2.3
R_R2B1         N1353782 MID R_NOISELESS 23
R_R3         VIN_CM N1174757 R_NOISELESS 43E9
R_R30         N1116251 N1116229 R_NOISELESS 1E-3
R_R31         VCC_CLP MID R_NOISELESS 1E3
R_R32         N1117217 VEE_B R_NOISELESS 1E3
R_R33         N1117233 N1117217 R_NOISELESS 1E-3
R_R34         VEE_CLP MID R_NOISELESS 1E3
R_R35         MID N1220118 R_NOISELESS 1E9
R_R36         N1220292 MID R_NOISELESS 1
R_R37         N1220320 N1220292 R_NOISELESS 1E-3
R_R38         N1220432 N1220418 R_NOISELESS 1E-3
R_R39         MID N1220418 R_NOISELESS 1
R_R40         MID N1220502 R_NOISELESS 1E9
R_R60         MID AOLNET R_NOISELESS 1E3
R_R8         N10561 N10570 R_NOISELESS 1E3
R_R81         MID N110431 R_NOISELESS 1E9
R_R83         MID N112292 R_NOISELESS 1E9
R_R9         N10570 N11984 R_NOISELESS 1E-3
R_R_VCLP         N91498 VCLP R_NOISELESS 100
R_R_VIMON         VIMON N110431 R_NOISELESS 100
R_R_VOUT_S         VOUT_S N112292 R_NOISELESS 100
V_CMVOS         N1242451 N1252473 0.001
V_VCM_MAX         N30136 VCC_B -1.5
V_VCM_MAX1         N1151603 VCC_B -1.5
V_VCM_MAX2         N1296228 VCC_B -1.1
V_VCM_MIN         N28602 VEE_B 1
V_VCM_MIN1         N1151839 VEE_B 1
V_VCM_MIN2         N1296466 VEE_B 0.45
V_VOS         N10561 N06458 10MVDC
X_AOL_1         INP INN MID AOLNET AOL_1_THS4567 
X_AOL_2         AOLNET MID MID CLAMP AOL_2_THS4567 
X_CLAWN         MID VIMON VEE_B N1117217 CLAWN_THS4567 
X_CLAWP         VIMON MID N1116229 VCC_B CLAWP_THS4567 
X_CLAW_AMP         N1220118 N1220502 VOUT_S MID N1220292 N1220418 CLAMP_AMP_LO_THS4567 
X_CLAW_SRC         N1220320 N1220432 CLAMP MID CLAW_SRC_THS4567 
X_ESD_OUT         OUT+ VCC VEE ESD_OUT_THS4567 
X_ESD_OUT1         OUT- VCC VEE ESD_OUT_THS4567 
X_F1    N1461258 MID IN+ MID 08_OP_AMP_COMPLETE_F1_THS4567 
X_F2    MID N1408065 IN- MID 08_OP_AMP_COMPLETE_F2_THS4567 
X_H3    OUT+ ZO+ N110431 MID 08_OP_AMP_COMPLETE_H3_THS4567 
X_IQ_N         MID VIMON MID VEE IQ_SRC_THS4567 
X_IQ_P         VIMON MID VCC MID IQ_SRC_THS4567 
X_I_NN         MID ESDN FEMT_THS4567 
X_I_NP         MID N06458 FEMT_THS4567 
X_S10    VEE_CLP ZO+ ZO+ MID 08_OP_AMP_COMPLETE_S10_THS4567 
X_S11    OUT- VCC_CLP OUT- MID 08_OP_AMP_COMPLETE_S11_THS4567 
X_S12    VEE_CLP OUT- OUT- MID 08_OP_AMP_COMPLETE_S12_THS4567 
X_S13    AOLVOCM MID AOLVOCM MID 08_OP_AMP_COMPLETE_S13_THS4567 
X_S14    MID AOLVOCM MID AOLVOCM 08_OP_AMP_COMPLETE_S14_THS4567 
X_S15    ICM_EN MID N1461258 N1408053 08_OP_AMP_COMPLETE_S15_THS4567 
X_S9    ZO+ VCC_CLP ZO+ MID 08_OP_AMP_COMPLETE_S9_THS4567 
X_U1         ESDP N06458 VNSE_THS4567 
X_U2         N1296356 N1252473 VNSE_THS4567 
X_VCM_CLAMP         N25816 MID N30913 MID N30136 N28602 VCM_CLAMP_THS4567 
X_VCM_CLAMP1         N1151745 MID N1151717 MID N1151603 N1151839 VCM_CLAMP_THS4567 
X_VCM_CLAMP2         VOCM MID N1296342 MID N1296228 N1296466 VCM_CLAMP_THS4567 
X_W1    N1174155 ESDN ESDP ESDN 08_OP_AMP_COMPLETE_W1_THS4567 
X_W2    N1174757 ESDP ESDP ESDN 08_OP_AMP_COMPLETE_W2_THS4567 
.ENDS  THS4567
*
.SUBCKT 08_OP_AMP_COMPLETE_F1_THS4567 1 2 3 4  
F_F1         3 4 VF_F1 -1
VF_F1         1 2 0V
.ENDS  08_OP_AMP_COMPLETE_F1_THS4567
*
.SUBCKT 08_OP_AMP_COMPLETE_F2_THS4567 1 2 3 4  
F_F2         3 4 VF_F2 -1
VF_F2         1 2 0V
.ENDS  08_OP_AMP_COMPLETE_F2_THS4567
*
.SUBCKT 08_OP_AMP_COMPLETE_H3_THS4567 1 2 3 4  
H_H3         3 4 VH_H3 -1E3
VH_H3         1 2 0V
.ENDS  08_OP_AMP_COMPLETE_H3_THS4567
*
.SUBCKT 08_OP_AMP_COMPLETE_S10_THS4567 1 2 3 4  
S_S10         3 4 1 2 _S10
RS_S10         1 2 1G
.MODEL         _S10 VSWITCH ROFF=1MEG RON=1 VOFF=-0.1 VON=0.1
.ENDS  08_OP_AMP_COMPLETE_S10_THS4567
*
.SUBCKT 08_OP_AMP_COMPLETE_S11_THS4567 1 2 3 4  
S_S11         3 4 1 2 _S11
RS_S11         1 2 1G
.MODEL         _S11 VSWITCH ROFF=1MEG RON=1 VOFF=-0.1 VON=0.1
.ENDS  08_OP_AMP_COMPLETE_S11_THS4567
*
.SUBCKT 08_OP_AMP_COMPLETE_S12_THS4567 1 2 3 4  
S_S12         3 4 1 2 _S12
RS_S12         1 2 1G
.MODEL         _S12 VSWITCH ROFF=1MEG RON=1 VOFF=-0.1 VON=0.1
.ENDS  08_OP_AMP_COMPLETE_S12_THS4567
*
.SUBCKT 08_OP_AMP_COMPLETE_S13_THS4567 1 2 3 4  
S_S13         3 4 1 2 _S13
RS_S13         1 2 1G
.MODEL         _S13 VSWITCH ROFF=2K RON=1 VOFF=3.5 VON=4
.ENDS  08_OP_AMP_COMPLETE_S13_THS4567
*
.SUBCKT 08_OP_AMP_COMPLETE_S14_THS4567 1 2 3 4  
S_S14         3 4 1 2 _S14
RS_S14         1 2 1G
.MODEL         _S14 VSWITCH ROFF=2K RON=1 VOFF=3.5 VON=4
.ENDS  08_OP_AMP_COMPLETE_S14_THS4567
*
.SUBCKT 08_OP_AMP_COMPLETE_S15_THS4567 1 2 3 4  
S_S15         3 4 1 2 _S15
RS_S15         1 2 1G
.MODEL         _S15 VSWITCH ROFF=1MEG RON=1 VOFF=0.8 VON=2
.ENDS  08_OP_AMP_COMPLETE_S15_THS4567
*
.SUBCKT 08_OP_AMP_COMPLETE_S9_THS4567 1 2 3 4  
S_S9         3 4 1 2 _S9
RS_S9         1 2 1G
.MODEL         _S9 VSWITCH ROFF=1MEG RON=1 VOFF=-0.1 VON=0.1
.ENDS  08_OP_AMP_COMPLETE_S9_THS4567
*
.SUBCKT 08_OP_AMP_COMPLETE_W1_THS4567 1 2 3 4  
W_W1         3 4 VW_W1 _W1
VW_W1         1 2 0V
.MODEL         _W1 ISWITCH ROFF=10MEG RON=1 IOFF=5E-12 ION=11E-12
.ENDS  08_OP_AMP_COMPLETE_W1_THS4567
*
.SUBCKT 08_OP_AMP_COMPLETE_W2_THS4567 1 2 3 4  
W_W2         3 4 VW_W2 _W2
VW_W2         1 2 0V
.MODEL         _W2 ISWITCH ROFF=10MEG RON=1 IOFF=5E-12 ION=11E-12
.ENDS  08_OP_AMP_COMPLETE_W2_THS4567
*
.SUBCKT AOL_1_THS4567 VC+ VC- IOUT+ IOUT-
.PARAM GAIN = 1E-3
.PARAM IPOS = .5
.PARAM INEG = -.5
G1 IOUT+ IOUT- VALUE={LIMIT(GAIN*V(VC+,VC-),INEG,IPOS)}
.ENDS  AOL_1_THS4567
*
.SUBCKT AOL_2_THS4567 VC+ VC- IOUT+ IOUT-
.PARAM GAIN = 741E-3
.PARAM IPOS = 0.106
.PARAM INEG = -0.106
G1 IOUT+ IOUT- VALUE={LIMIT(GAIN*V(VC+,VC-),INEG,IPOS)}
.ENDS  AOL_2_THS4567
*
.SUBCKT CLAMP_AMP_LO_THS4567 VC+ VC- VIN COM VO+ VO-
.PARAM G=1
GVO+ COM VO+ VALUE = {IF(V(VIN,COM)>V(VC+,COM),((V(VIN,COM)-V(VC+,COM))*G),0)}
GVO- COM VO- VALUE = {IF(V(VIN,COM)<V(VC-,COM),((V(VC-,COM)-V(VIN,COM))*G),0)}
.ENDS  CLAMP_AMP_LO_THS4567
*
.SUBCKT CLAWN_THS4567 VC+ VC- IOUT+ IOUT-
G1 IOUT+ IOUT- TABLE {(V(VC+,VC-))} =
+(0.0, 2.38E-04)
+(35.8, 1.41E-03)
+(53.9, 2.31E-03)
+(55,	5.00E-03)
.ENDS  CLAWN_THS4567
*
.SUBCKT CLAWP_THS4567 VC+ VC- IOUT+ IOUT-
G1 IOUT+ IOUT- TABLE {(V(VC+,VC-))} =
+(0.0, 2.38E-04)
+(35.8, 1.41E-03)
+(53.9, 2.31E-03)
+(55,	5.00E-03)
.ENDS  CLAWP_THS4567
*
.SUBCKT CLAW_SRC_THS4567 VC+ VC- IOUT+ IOUT-
.PARAM GAIN = 40
.PARAM IPOS = 20
.PARAM INEG = -20
G1 IOUT+ IOUT- VALUE={LIMIT(GAIN*V(VC+,VC-),INEG,IPOS)}
.ENDS  CLAW_SRC_THS4567
*
.SUBCKT ESD_OUT_THS4567 OUT VCC VEE
.MODEL ESD_SW VSWITCH(RON=50 ROFF=1E12 VON=500E-3 VOFF=450E-3)
S1 VCC OUT OUT VCC ESD_SW
S2 OUT VEE VEE OUT ESD_SW
.ENDS  ESD_OUT_THS4567
*
.SUBCKT FEMT_THS4567 1 2
.PARAM FLWF=10
.PARAM NLFF=250
.PARAM NVRF=10
.PARAM GLFF={PWR(FLWF,0.25)*NLFF/1164}
.PARAM RNVF={1.184*PWR(NVRF,2)}
.MODEL DVNF D KF={PWR(FLWF,0.5)/1E11} IS=1.0E-16
I1 0 7 10E-3
I2 0 8 10E-3
D1 7 0 DVNF
D2 8 0 DVNF
E1 3 6 7 8 {GLFF}
R1 3 0 1E9
R2 3 0 1E9
R3 3 6 1E9
E2 6 4 5 0 10
R4 5 0 {RNVF}
R5 5 0 {RNVF}
R6 3 4 1E9
R7 4 0 1E9
G1 1 2 3 4 1E-6
.ENDS  FEMT_THS4567
*
.SUBCKT IQ_SRC_THS4567 VC+ VC- IOUT+ IOUT-
.PARAM GAIN = 1E-3
G1 IOUT+ IOUT- VALUE={IF( (V(VC+,VC-)<=0),0,GAIN*V(VC+,VC-) )}
.ENDS  IQ_SRC_THS4567
*
.SUBCKT VCM_CLAMP_THS4567 VIN+ VIN- IOUT- IOUT+ VP+ VP-
.PARAM GAIN = 1
G1 IOUT+ IOUT- VALUE={LIMIT(GAIN*V(VIN+,VIN-),V(VP-,VIN-), V(VP+,VIN-))}
.ENDS  VCM_CLAMP_THS4567
*
.SUBCKT VNSE_THS4567 1 2
.PARAM FLW=10
.PARAM NLF=25
.PARAM NVR=4.6
.PARAM GLF={PWR(FLW,0.25)*NLF/1164}
.PARAM RNV={1.184*PWR(NVR,2)}
.MODEL DVN D KF={PWR(FLW,0.5)/1E11} IS=1.0E-16
I1 0 7 10E-3
I2 0 8 10E-3
D1 7 0 DVN
D2 8 0 DVN
E1 3 6 7 8 {GLF}
R1 3 0 1E9
R2 3 0 1E9
R3 3 6 1E9
E2 6 4 5 0 10
R4 5 0 {RNV}
R5 5 0 {RNV}
R6 3 4 1E9
R7 4 0 1E9
E3 1 2 3 4 1
.ENDS  VNSE_THS4567
*