* THS6222 - Rev. A
* Created by Sean Cashin; 2021-04-28
* Created with Green-Williams-Lis Current Sense Amp Macro-model Architecture
* Copyright 2021 by Texas Instruments Corporation
******************************************************
* MACRO-MODEL SIMULATED PARAMETERS:
******************************************************
* AC PARAMETERS
**********************
* CLOSED-LOOP OUTPUT IMPEDANCE VS. FREQUENCY (Zout vs. Freq.)
* CLOSED-LOOP GAIN AND PHASE VS. FREQUENCY  WITH RL, CL EFFECTS (Acl vs. Freq.)
* COMMON-MODE REJECTION RATIO VS. FREQUENCY (CMRR vs. Freq.)
* POWER SUPPLY REJECTION RATIO VS. FREQUENCY (PSRR vs. Freq.)
* INPUT VOLTAGE NOISE DENSITY VS. FREQUENCY (en vs. Freq.)
**********************
* DC PARAMETERS
**********************
* INPUT COMMON-MODE VOLTAGE RANGE (Vcm)
* GAIN ERROR (Eg)
* INPUT BIAS CURRENT VS. INPUT COMMON-MODE VOLTAGE (Ib vs. Vcm)
* INPUT OFFSET VOLTAGE VS. TEMPERATURE (Vos vs. Temp)
* OUTPUT VOLTAGE SWING vs. OUTPUT CURRENT (Vout vs. Iout)
* SHORT-CIRCUIT OUTPUT CURRENT (Isc)
* QUIESCENT CURRENT (Iq)
**********************
* TRANSIENT PARAMETERS
**********************
* SLEW RATE (SR)
* SETTLING TIME VS. CAPACITIVE LOAD (ts)
* OVERLOAD RECOVERY TIME (tor)
******************************************************
.subckt THS6222 D1_IN+ D1_OUT D1_FB D2_IN+ D2_OUT D2_FB VCC VEE BIAS-1 BIAS-2 GND
******************************************************
.MODEL R_NOISE RES (T_ABS=27)
.MODEL R_NOISELESS RES (T_ABS=-273.15)
C_C10         MID N42834  1E-15   
C_C11         N44757 MID  1E-15   
C_C1A1         N709113 N709083  15P   
C_C1A11         N1179250 N1179260  229N   
C_C1A12         N1179270 N1179280  0.633P   
C_C1A22         N704975 N705005  15P   
C_C1A23         N1191441 N1191451  290N   
C_C1A24         N1191461 N1191471  0.7P   
C_C1A25         N1196162 N1196172  350N   
C_C1A26         N1196182 N1196192  0.729P   
C_C1A27         N1280792 D2_CMRR  8N   
C_C1A30         N1283786 N1283798  229N   
C_C1A31         N1283810 N1283820  0.633P   
C_C1A32         N1286070 N1286082  350N   
C_C1A33         N1286092 N1286104  0.729P   
C_C1A34         N1287548 N1287560  290N   
C_C1A35         N1287570 N1287582  0.7P   
C_C1A9         N701935 D1_CMRR  8N   
C_C2         N1095933 N1095923  245P   
C_C20         N1116577 MID  50N   
C_C3         N1096059 MID  50N   
C_C33         N406634 0  1E-15   
C_C34         N317950 0  1   
C_C35         N406794 0  1E-15   
C_C36         N797682 N1028647  245P   
C_C37         N1096147 MID  10P   
C_C38         N1096227 MID  353.7FF   
C_C39         N1144823 N1144813  245P   
C_C4         N1106098 MID  353.7F   
C_C40         N1144995 MID  50N   
C_C41         N1145169 MID  353.7FF   
C_C42         N1145103 MID  10P   
C_C43         AOL1 MID  15P   
C_C44         MID N1281250  1E-15   
C_C45         MID N1281666  1E-15   
C_C46         MID N1282086  1E-15   
C_C47         N1282146 MID  1E-15   
C_C48         N1283016 MID  1E-15   
C_C49         N1283768 N1283758  15.92F   
C_C5         N1081525 MID  10P   
C_C50         N1283862 N1283872  245P   
C_C51         N1284524 MID  50N   
C_C52         N1284264 MID  10P   
C_C53         D2_AOL1 MID  15P   
C_C54         N1284816 MID  353.7F   
C_C55         N1285974 N1285964  245P   
C_C56         N1286274 MID  50N   
C_C57         N1286626 MID  353.7FF   
C_C58         N1286386 MID  10P   
C_C59         N1287434 N1287424  245P   
C_C6         N1264246 N1264236  15.92F   
C_C60         N1287784 MID  50N   
C_C61         N1288124 MID  353.7FF   
C_C62         N1287896 MID  10P   
C_C7         N31014 MID  1E-15   
C_C8         MID N35813  1E-15   
C_C9         MID N38096  1E-15   
C_C_CMP         D1_IN+ MID  2E-12   
C_C_CMP1         D2_IN+ MID  2E-12   
C_C_VIMON         MID D1_VIMON  1E-9   
C_C_VIMON1         MID D2_VIMON  1E-9   
C_C_VOUT_S         MID D1_VOUT_S  1E-9   
C_C_VOUT_S1         MID D2_VOUT_S  1E-9   
E_E3         N112292 MID D1_OUT MID 1
E_E6         MID 0 N317950 0 1
E_E7         N1327152 MID N31014 MID 1
E_E8         N1334799 MID N1283016 MID 1
E_E9         N1284984 MID D2_OUT MID 1
G_G1         N1179250 MID AOL1 ZOUT00 -1
G_G100         N1287548 MID N1287896 D2_ZOUT10 -1
G_G101         N1287876 MID N1287456 MID -1
G_G102         N1309417 0 N1309601 0 -1
G_G103         VCC VEE N1458707 0 -5.3E-3
G_G105         VCC VEE N1469720 0 -10.8E-3
G_G107         VCC VEE N1470352 0 -5.42E-3
G_G17         N1095943 MID N1095933 MID -1
G_G18         N1096129 MID N1095953 MID -1
G_G19         N1264236 MID N1081525 MID -100
G_G2         N10570 N10561 D1_CMRR MID -1E-3
G_G20         N1264336 MID N1264246 MID -1
G_G36         VCC_B 0 VCC 0 -1
G_G37         VEE_B 0 VEE 0 -1
G_G4         N704975 MID VEE_B MID -20
G_G6         N25816 N11984 N709113 N705005 -1E-3
G_G60         N701935 MID D1_IN+ MID -0.073
G_G61         N709083 MID VCC_B MID -20
G_G62         N797682 MID N1116577 MID -16167
G_G69         N1029304 MID N1028647 MID -1
G_G70         N1034949 MID N1032135 MID -1
G_G72         N1095923 MID N1096059 MID -29310
G_G75         N1144813 MID N1144995 MID -21451
G_G76         N1144833 MID N1144823 MID -1
G_G77         N1145085 MID N1144843 MID -1
G_G79         N1191441 MID N1145103 ZOUT10 -1
G_G8         D1_VCC_CLP MID N35813 MID -1E-3
G_G80         N1196162 MID N1096147 ZOUT01 -1
G_G81         N1280792 MID D2_IN+ MID -0.073
G_G82         D2_VCC_CLP MID N1281250 MID -1E-3
G_G83         N1282188 N1282180 D2_CMRR MID -1E-3
G_G87         D2_VEE_CLP MID N1282086 MID -1E-3
G_G88         N1283786 MID D2_AOL1 D2_ZOUT00 -1
G_G89         N1283862 MID N1284524 MID -16167
G_G9         D1_VEE_CLP MID N38096 MID -1E-3
G_G90         N1283758 MID N1284264 MID -100
G_G91         N1284310 MID N1283768 MID -1
G_G92         N1283880 MID N1283872 MID -1
G_G93         N1284246 MID N1283890 MID -1
G_G94         N1285964 MID N1286274 MID -29310
G_G95         N1285986 MID N1285974 MID -1
G_G96         N1286070 MID N1286386 D2_ZOUT01 -1
G_G97         N1286366 MID N1285996 MID -1
G_G98         N1287424 MID N1287784 MID -21451
G_G99         N1287446 MID N1287434 MID -1
G_GB10         N1284722 MID N1283820 MID -1
G_GB11         N1286092 MID N1286082 MID -8294
G_GB12         N1286726 MID N1286104 MID -1
G_GB13         N1287570 MID N1287560 MID -8550
G_GB14         N1288224 MID N1287582 MID -1
G_GB2         N1179270 MID N1179260 MID -670
G_GB4         N1179552 MID N1179280 MID -1
G_GB5         N1191461 MID N1191451 MID -8550
G_GB6         N1191743 MID N1191471 MID -1
G_GB7         N1196182 MID N1196172 MID -8294
G_GB8         N1196468 MID N1196192 MID -1
G_GB9         N1283810 MID N1283798 MID -670
I_I1         0 N1458707 DC 1ADC  
I_I3         0 N1469720 DC 1ADC  
I_I5         0 N1470352 DC 1ADC  
I_I_B         N06456 MID DC 1E-6  
I_I_B2         N05102 MID DC 8E-6  
I_I_B3         N1282180 MID DC 1E-6  
I_I_B4         N1283328 MID DC 8E-6  
I_I_Q         VCC 0 DC 22.9E-3  
I_I_Q1         0 VEE DC 21.9E-3  
L_L1         VB1_0_VB2_0 N1116577  39UH  
L_L10         N1179504 N1179260  15U  
L_L11         N1191695 N1191451  16U  
L_L12         N1191727 N1191471  50N  
L_L13         N1196416 N1196172  20U  
L_L14         N1196450 N1196192  80N  
L_L15         N1264336 AOL1  100P  
L_L16         N1284246 N1284264  5NH  
L_L17         N1284310 D2_AOL1  100P  
L_L18         D2_VB1_0_VB2_0 N1284524  39UH  
L_L19         N1284670 N1283798  15U  
L_L2         N1179536 N1179280  40N  
L_L20         N1284704 N1283820  40N  
L_L21         D2_VB1_0_VB2_1 N1286274  72UH  
L_L22         N1286366 N1286386  15NH  
L_L23         N1286674 N1286082  20U  
L_L24         N1286708 N1286104  80N  
L_L25         D2_VB1_1_VB2_0 N1287784  51.5UH  
L_L26         N1287876 N1287896  7.5NH  
L_L27         N1288172 N1287560  16U  
L_L28         N1288206 N1287582  50N  
L_L5         N1034949 N1081525  5NH  
L_L6         VB1_0_VB2_1 N1096059  72UH  
L_L7         N1096129 N1096147  15NH  
L_L8         VB1_1_VB2_0 N1144995  51.5UH  
L_L9         N1145085 N1145103  7.5NH  
R_R107         VCC_B 0 R_NOISELESS 1
R_R108         N317950 0 R_NOISELESS 1E12
R_R109         VEE_B 0 R_NOISELESS 1
R_R110         VCC_B N406634 R_NOISELESS 1E-3
R_R111         N406634 N317950 R_NOISELESS 1E6
R_R112         N317950 N406794 R_NOISELESS 1E6
R_R113         N406794 VEE_B R_NOISELESS 1E-3
R_R135         N701935 MID R_NOISELESS 1
R_R136         N704975 MID R_NOISELESS 1
R_R142         N797682 MID R_NOISELESS 1
R_R169         N1327152 N05102 R_NOISELESS 43
R_R170         MID N1116577 R_NOISELESS 26
R_R171         N1028647 MID R_NOISELESS 0.65
R_R172         N797682 N1028647 R_NOISELESS 10K
R_R174         N1029304 MID R_NOISELESS 1
R_R176         N1034949 MID R_NOISELESS 1
R_R1A         N1179504 N1179250 R_NOISELESS 8
R_R1A1         N1179536 N1179270 R_NOISELESS 12
R_R1A10         N701935 D1_CMRR R_NOISELESS 1E4
R_R1A11         N1191695 N1191441 R_NOISELESS 8.3
R_R1A12         N1191727 N1191461 R_NOISELESS 12
R_R1A13         N1196416 N1196162 R_NOISELESS 10
R_R1A14         N1196450 N1196182 R_NOISELESS 12
R_R1A15         N1280792 D2_CMRR R_NOISELESS 1E4
R_R1A18         N1284670 N1283786 R_NOISELESS 8
R_R1A19         N1284704 N1283810 R_NOISELESS 12
R_R1A20         N1286674 N1286070 R_NOISELESS 10
R_R1A21         N1286708 N1286092 R_NOISELESS 12
R_R1A22         N1288172 N1287548 R_NOISELESS 8.3
R_R1A23         N1288206 N1287570 R_NOISELESS 12
R_R1A3         N704975 N705005 R_NOISELESS 1E4
R_R1A4         N709083 N709113 R_NOISELESS 1E4
R_R2         N05102 D1_FB R_NOISELESS 10E-3
R_R21         N11984 N25816 R_NOISELESS 1E3
R_R25         MID N28602 R_NOISELESS 1E9
R_R250         N1029304 N1032135 R_NOISELESS 5254
R_R251         N1032135 N1106098 R_NOISELESS 10K
R_R256         N1095923 N1095933 R_NOISELESS 10K
R_R257         N1096059 MID R_NOISELESS 30
R_R258         N1095923 MID R_NOISELESS 1
R_R259         N1095933 MID R_NOISELESS 0.65
R_R26         N30136 MID R_NOISELESS 1E9
R_R261         N1144833 N1144843 R_NOISELESS 5254
R_R262         N1144813 N1144823 R_NOISELESS 10K
R_R263         N1144843 N1145169 R_NOISELESS 10K
R_R264         N1144833 MID R_NOISELESS 1
R_R265         N1144995 MID R_NOISELESS 30
R_R266         N1144813 MID R_NOISELESS 1
R_R267         N1145085 MID R_NOISELESS 1
R_R268         N1145103 MID R_NOISELESS 29
R_R269         N1144823 MID R_NOISELESS 0.65
R_R27         MID N30913 R_NOISELESS 1
R_R272         MID N1179250 R_NOISELESS 1
R_R273         MID N1179552 R_NOISELESS 1
R_R274         N1191471 MID R_NOISELESS 10
R_R275         MID N1191461 R_NOISELESS 1
R_R276         MID N1191441 R_NOISELESS 1
R_R277         MID N1191743 R_NOISELESS 1
R_R278         MID N1196162 R_NOISELESS 1
R_R279         MID N1196182 R_NOISELESS 1
R_R28         N31014 N30913 R_NOISELESS 1E-3
R_R280         N1196192 MID R_NOISELESS 10
R_R281         MID N1196468 R_NOISELESS 1
R_R283         N1081525 MID R_NOISELESS 25
R_R285         N1280792 MID R_NOISELESS 1
R_R286         N1281228 VCC_B R_NOISELESS 1E3
R_R287         D2_VCC_CLP MID R_NOISELESS 1E3
R_R288         MID D2_VCC_CLP R_NOISELESS 1E9
R_R289         N1281250 N1281228 R_NOISELESS 1E-3
R_R29         N35669 VCC_B R_NOISELESS 1E3
R_R290         N1281638 MID R_NOISELESS 1
R_R291         N1281666 N1281638 R_NOISELESS 1E-3
R_R292         N1282086 N1282070 R_NOISELESS 1E-3
R_R293         N1282146 N1282132 R_NOISELESS 1E-3
R_R296         N1282070 VEE_B R_NOISELESS 1E3
R_R297         D2_VEE_CLP MID R_NOISELESS 1E3
R_R298         MID N1282132 R_NOISELESS 1
R_R299         N1282180 N1282188 R_NOISELESS 1E3
R_R2A1         N709113 MID R_NOISELESS 0.225
R_R2A10         D1_CMRR MID R_NOISELESS 0.05
R_R2A12         MID N1179260 R_NOISELESS 6.5
R_R2A13         MID N1191451 R_NOISELESS 5.735
R_R2A14         MID N1196172 R_NOISELESS 5
R_R2A15         D2_CMRR MID R_NOISELESS 0.05
R_R2A18         MID N1283798 R_NOISELESS 6.5
R_R2A19         MID N1286082 R_NOISELESS 5
R_R2A20         MID N1287560 R_NOISELESS 5.735
R_R2A3         N705005 MID R_NOISELESS 0.225
R_R3         MID D1_IN+ R_NOISELESS 500K
R_R30         N35813 N35669 R_NOISELESS 1E-3
R_R300         MID D2_VEE_CLP R_NOISELESS 1E9
R_R302         MID D2_IN+ R_NOISELESS 500K
R_R303         N1282776 MID R_NOISELESS 1E9
R_R304         N1283016 N1283002 R_NOISELESS 1E-3
R_R305         N1282188 N1283276 R_NOISELESS 1E-3
R_R306         MID N1283002 R_NOISELESS 1
R_R307         MID D2_AOL_1 R_NOISELESS 1.415E6
R_R308         MID D2_IN R_NOISELESS 1
R_R309         MID N1283538 R_NOISELESS 1E9
R_R31         D1_VCC_CLP MID R_NOISELESS 1E3
R_R310         N1334799 N1283328 R_NOISELESS 43
R_R311         N1283880 N1283890 R_NOISELESS 5254
R_R312         N1283862 N1283872 R_NOISELESS 10K
R_R313         N1283890 N1284816 R_NOISELESS 10K
R_R314         N1283758 N1283768 R_NOISELESS 10K
R_R315         N1283880 MID R_NOISELESS 1
R_R316         N1284264 MID R_NOISELESS 25
R_R317         D2_AOL1 MID R_NOISELESS 50
R_R318         MID N1284956 R_NOISELESS 1E9
R_R319         MID N1284984 R_NOISELESS 1E9
R_R32         N38050 VEE_B R_NOISELESS 1E3
R_R320         MID N1284524 R_NOISELESS 26
R_R321         N1283862 MID R_NOISELESS 1
R_R322         N1283872 MID R_NOISELESS 0.65
R_R323         N1284246 MID R_NOISELESS 1
R_R324         N1283758 MID R_NOISELESS 1
R_R325         N1283768 MID R_NOISELESS 101
R_R326         N1284310 MID R_NOISELESS 1
R_R327         MID N1283786 R_NOISELESS 1
R_R328         MID N1283810 R_NOISELESS 1
R_R329         N1283820 MID R_NOISELESS 10
R_R33         N38096 N38050 R_NOISELESS 1E-3
R_R330         MID N1284722 R_NOISELESS 1
R_R331         N1283328 D2_FB R_NOISELESS 10E-3
R_R332         N1285986 N1285996 R_NOISELESS 5254
R_R333         N1285964 N1285974 R_NOISELESS 10K
R_R334         N1285996 N1286626 R_NOISELESS 10K
R_R335         N1285986 MID R_NOISELESS 1
R_R336         N1286274 MID R_NOISELESS 30
R_R337         N1285964 MID R_NOISELESS 1
R_R338         N1286366 MID R_NOISELESS 1
R_R339         N1286386 MID R_NOISELESS 35
R_R34         D1_VEE_CLP MID R_NOISELESS 1E3
R_R340         N1285974 MID R_NOISELESS 0.65
R_R341         MID N1286070 R_NOISELESS 1
R_R342         MID N1286092 R_NOISELESS 1
R_R343         N1286104 MID R_NOISELESS 10
R_R344         MID N1286726 R_NOISELESS 1
R_R345         N1287446 N1287456 R_NOISELESS 5254
R_R346         N1287424 N1287434 R_NOISELESS 10K
R_R347         N1287456 N1288124 R_NOISELESS 10K
R_R348         N1287446 MID R_NOISELESS 1
R_R349         N1287784 MID R_NOISELESS 30
R_R35         MID D1_VCC_CLP R_NOISELESS 1E9
R_R350         N1287424 MID R_NOISELESS 1
R_R351         N1287876 MID R_NOISELESS 1
R_R352         N1287896 MID R_NOISELESS 29
R_R357         N1287434 MID R_NOISELESS 0.65
R_R358         MID N1287548 R_NOISELESS 1
R_R359         MID N1287570 R_NOISELESS 1
R_R36         N42663 MID R_NOISELESS 1
R_R360         N1287582 MID R_NOISELESS 10
R_R361         MID N1288224 R_NOISELESS 1
R_R365         VCM D2_IN+ R_NOISE 5K
R_R366         D1_IN+ VCM R_NOISE 5K
R_R367         VCM N1309417 R_NOISE 520
R_R368         VCC N1309601 R_NOISE 100K
R_R369         N1309601 VEE R_NOISE 100K
R_R37         N42834 N42663 R_NOISELESS 1E-3
R_R370         D1_IN+ D2_IN+ R_NOISELESS 11K
R_R38         N44757 N44799 R_NOISELESS 1E-3
R_R39         MID N44799 R_NOISELESS 1
R_R40         MID D1_VEE_CLP R_NOISELESS 1E9
R_R41         N1095943 MID R_NOISELESS 1
R_R42         N1095953 N1096227 R_NOISELESS 10K
R_R43         N1095943 N1095953 R_NOISELESS 5254
R_R44         N1096147 MID R_NOISELESS 35
R_R45         N1096129 MID R_NOISELESS 1
R_R46         N1264236 N1264246 R_NOISELESS 10K
R_R47         N1264236 MID R_NOISELESS 1
R_R48         N1264246 MID R_NOISELESS 101
R_R49         AOL1 MID R_NOISELESS 50
R_R5         N709083 MID R_NOISELESS 1
R_R50         N1264336 MID R_NOISELESS 1
R_R6         MID N1179270 R_NOISELESS 1
R_R60         MID D1_AOL_1 R_NOISELESS 1.415E6
R_R61         MID D1_IN R_NOISELESS 1
R_R7         N1179280 MID R_NOISELESS 10
R_R8         N10561 N10570 R_NOISELESS 1E3
R_R81         MID N110431 R_NOISELESS 1E9
R_R83         MID N112292 R_NOISELESS 1E9
R_R9         N10570 N11984 R_NOISELESS 1E-3
R_RDUMMY         MID ZOUT00 R_NOISELESS 45
R_RDUMMY1         MID ZOUT10 R_NOISELESS 60
R_RDUMMY2         MID ZOUT01 R_NOISELESS 90
R_RDUMMY3         MID D2_ZOUT00 R_NOISELESS 45
R_RDUMMY4         MID D2_ZOUT01 R_NOISELESS 90
R_RDUMMY5         MID D2_ZOUT10 R_NOISELESS 60
R_RX         ZOUT00 N1179552 R_NOISELESS 450
R_RX1         ZOUT10 N1191743 R_NOISELESS 6K
R_RX2         ZOUT01 N1196468 R_NOISELESS 6K
R_RX3         D2_ZOUT00 N1284722 R_NOISELESS 450
R_RX4         D2_ZOUT01 N1286726 R_NOISELESS 6K
R_RX5         D2_ZOUT10 N1288224 R_NOISELESS 6K
R_R_VIMON         D1_VIMON N110431 R_NOISELESS 100
R_R_VIMON1         D2_VIMON N1284956 R_NOISELESS 100
R_R_VOUT_S         D1_VOUT_S N112292 R_NOISELESS 100
R_R_VOUT_S1         D2_VOUT_S N1284984 R_NOISELESS 100
V_V4         GND+2 GND 2V
V_VCM_MAX         N30136 VCC_B -3
V_VCM_MAX1         N1282776 VCC_B -3
V_VCM_MIN         N28602 VEE_B 3
V_VCM_MIN1         N1283538 VEE_B 3
X_AOL_1         N1327152 N05102 MID D1_AOL_1 AOL_1_THS6222 
X_AOL_2         D1_AOL_1 MID MID D1_IN AOL_2_THS6222 
X_AOL_3         N1334799 N1283328 MID D2_AOL_1 AOL_1_THS6222 
X_AOL_4         D2_AOL_1 MID MID D2_IN AOL_2_THS6222 
X_CLAWN         MID D1_VIMON VEE_B N38050 CLAWN_THS6222 
X_CLAWN1         MID D2_VIMON VEE_B N1282070 CLAWN_THS6222 
X_CLAWP         D1_VIMON MID N35669 VCC_B CLAWP_THS6222 
X_CLAWP1         D2_VIMON MID N1281228 VCC_B CLAWP_THS6222 
X_CLAW_AMP         D1_VCC_CLP D1_VEE_CLP D1_VOUT_S MID N42663 N44799
+  CLAMP_AMP_LO_THS6222 
X_CLAW_AMP1         D2_VCC_CLP D2_VEE_CLP D2_VOUT_S MID N1281638 N1282132
+  CLAMP_AMP_LO_THS6222 
X_CLAW_SRC         N42834 N44757 D1_IN MID CLAW_SRC_THS6222 
X_CLAW_SRC1         N1281666 N1282146 D2_IN MID CLAW_SRC_THS6222 
X_ESD_OUT         D1_OUT VCC VEE ESD_OUT_THS6222 
X_ESD_OUT1         D2_OUT VCC VEE ESD_OUT_THS6222 
X_E_N         D1_IN+ N06456 VNSE_THS6222 
X_E_N1         D2_IN+ N1282180 VNSE_THS6222 
X_H3    D1_OUT ZOUT N110431 MID 08_OP_AMP_COMPLETE_H3_THS6222 
X_H4    D2_OUT D2_ZOUT N1284956 MID 08_OP_AMP_COMPLETE_H4_THS6222 
X_IQ_N         MID D1_VIMON MID VEE IQ_SRC_THS6222 
X_IQ_N1         MID D2_VIMON MID VEE IQ_SRC_THS6222 
X_IQ_P         D1_VIMON MID VCC MID IQ_SRC_THS6222 
X_IQ_P1         D2_VIMON MID VCC MID IQ_SRC_THS6222 
X_I_NP         N06456 MID FEMT_THS6222 
X_I_NP1         N1282180 MID FEMT_THS6222 
X_I_NP2         MID N05102 FEMTB_THS6222 
X_I_NP3         MID N1283328 FEMTB_THS6222 
X_S10    GND+2 BIAS-2 N1088178 VB1_1_VB2_0 08_OP_AMP_COMPLETE_S10_THS6222 
X_S11    BIAS-2 GND N1088202 VB1_0_VB2_1 08_OP_AMP_COMPLETE_S11_THS6222 
X_S12    GND+2 BIAS-1 D1_IN N1088202 08_OP_AMP_COMPLETE_S12_THS6222 
X_S13    GND+2 BIAS-1 ZOUT N1240341 08_OP_AMP_COMPLETE_S13_THS6222 
X_S14    BIAS-1 GND ZOUT N1240359 08_OP_AMP_COMPLETE_S14_THS6222 
X_S15    GND+2 BIAS-1 ZOUT N1240377 08_OP_AMP_COMPLETE_S15_THS6222 
X_S16    GND+2 BIAS-2 N1240359 ZOUT10 08_OP_AMP_COMPLETE_S16_THS6222 
X_S17    BIAS-2 GND N1240377 ZOUT01 08_OP_AMP_COMPLETE_S17_THS6222 
X_S18    GND+2 BIAS-2 N1240341 ZOUT00 08_OP_AMP_COMPLETE_S18_THS6222 
X_S19    GND+2 BIAS-1 D2_ZOUT N1289690 08_OP_AMP_COMPLETE_S19_THS6222 
X_S20    GND+2 BIAS-1 D2_IN N1289732 08_OP_AMP_COMPLETE_S20_THS6222 
X_S21    BIAS-1 GND D2_ZOUT N1289750 08_OP_AMP_COMPLETE_S21_THS6222 
X_S22    GND+2 BIAS-1 D2_ZOUT N1289768 08_OP_AMP_COMPLETE_S22_THS6222 
X_S23    BIAS-1 GND D2_IN N1289786 08_OP_AMP_COMPLETE_S23_THS6222 
X_S24    GND+2 BIAS-1 D2_IN N1289804 08_OP_AMP_COMPLETE_S24_THS6222 
X_S25    GND+2 BIAS-2 N1289750 D2_ZOUT10 08_OP_AMP_COMPLETE_S25_THS6222 
X_S26    BIAS-2 GND N1289768 D2_ZOUT01 08_OP_AMP_COMPLETE_S26_THS6222 
X_S27    GND+2 BIAS-2 N1289690 D2_ZOUT00 08_OP_AMP_COMPLETE_S27_THS6222 
X_S28    GND+2 BIAS-2 N1289786 D2_VB1_1_VB2_0 08_OP_AMP_COMPLETE_S28_THS6222 
X_S29    BIAS-2 GND N1289804 D2_VB1_0_VB2_1 08_OP_AMP_COMPLETE_S29_THS6222 
X_S3    BIAS-1 GND D1_IN N1088178 08_OP_AMP_COMPLETE_S3_THS6222 
X_S30    GND+2 BIAS-2 N1289732 D2_VB1_0_VB2_0 08_OP_AMP_COMPLETE_S30_THS6222 
X_S31    BIAS-1 GND N1458707 0 08_OP_AMP_COMPLETE_S31_THS6222 
X_S33    BIAS-2 GND N1469720 0 08_OP_AMP_COMPLETE_S33_THS6222 
X_S35    BIAS-1 GND N1470352 0 08_OP_AMP_COMPLETE_S35_THS6222 
X_S37    BIAS-2 GND N1470352 0 08_OP_AMP_COMPLETE_S37_THS6222 
X_S8    GND+2 BIAS-2 N1143423 VB1_0_VB2_0 08_OP_AMP_COMPLETE_S8_THS6222 
X_S9    GND+2 BIAS-1 D1_IN N1143423 08_OP_AMP_COMPLETE_S9_THS6222 
X_VCM_CLAMP         N25816 MID N30913 MID N30136 N28602 VCM_CLAMP_THS6222 
X_VCM_CLAMP1         N1283276 MID N1283002 MID N1282776 N1283538 VCM_CLAMP_THS6222 
X_VOS_DRIFT         N749288 N06456 VOS_DRIFT_THS6222 
X_VOS_VS_VCM         N10561 N749288 VCC VEE VOS_VS_VCM_THS6222 
.ENDS  THS6222
*
.SUBCKT 08_OP_AMP_COMPLETE_H3_THS6222 1 2 3 4  
H_H3         3 4 VH_H3 -1E3
VH_H3         1 2 0V
.ENDS  08_OP_AMP_COMPLETE_H3_THS6222
*
.SUBCKT 08_OP_AMP_COMPLETE_H4_THS6222 1 2 3 4  
H_H4         3 4 VH_H4 -1E3
VH_H4         1 2 0V
.ENDS  08_OP_AMP_COMPLETE_H4_THS6222
*
.SUBCKT 08_OP_AMP_COMPLETE_S10_THS6222 1 2 3 4  
S_S10         3 4 1 2 _S10
RS_S10         1 2 1G
.MODEL         _S10 VSWITCH ROFF=1T RON=1 VOFF=0.1 VON=1.2
.ENDS  08_OP_AMP_COMPLETE_S10_THS6222
*
.SUBCKT 08_OP_AMP_COMPLETE_S11_THS6222 1 2 3 4  
S_S11         3 4 1 2 _S11
RS_S11         1 2 1G
.MODEL         _S11 VSWITCH ROFF=1T RON=1 VOFF=0.8 VON=1.9
.ENDS  08_OP_AMP_COMPLETE_S11_THS6222
*
.SUBCKT 08_OP_AMP_COMPLETE_S12_THS6222 1 2 3 4  
S_S12         3 4 1 2 _S12
RS_S12         1 2 1G
.MODEL         _S12 VSWITCH ROFF=1T RON=1 VOFF=0.1 VON=1.2
.ENDS  08_OP_AMP_COMPLETE_S12_THS6222
*
.SUBCKT 08_OP_AMP_COMPLETE_S13_THS6222 1 2 3 4  
S_S13         3 4 1 2 _S13
RS_S13         1 2 1G
.MODEL         _S13 VSWITCH ROFF=1T RON=1 VOFF=0.1 VON=1.2
.ENDS  08_OP_AMP_COMPLETE_S13_THS6222
*
.SUBCKT 08_OP_AMP_COMPLETE_S14_THS6222 1 2 3 4  
S_S14         3 4 1 2 _S14
RS_S14         1 2 1G
.MODEL         _S14 VSWITCH ROFF=1T RON=1 VOFF=0.8 VON=1.9
.ENDS  08_OP_AMP_COMPLETE_S14_THS6222
*
.SUBCKT 08_OP_AMP_COMPLETE_S15_THS6222 1 2 3 4  
S_S15         3 4 1 2 _S15
RS_S15         1 2 1G
.MODEL         _S15 VSWITCH ROFF=1T RON=1 VOFF=0.1 VON=1.2
.ENDS  08_OP_AMP_COMPLETE_S15_THS6222
*
.SUBCKT 08_OP_AMP_COMPLETE_S16_THS6222 1 2 3 4  
S_S16         3 4 1 2 _S16
RS_S16         1 2 1G
.MODEL         _S16 VSWITCH ROFF=1T RON=1 VOFF=0.1 VON=1.2
.ENDS  08_OP_AMP_COMPLETE_S16_THS6222
*
.SUBCKT 08_OP_AMP_COMPLETE_S17_THS6222 1 2 3 4  
S_S17         3 4 1 2 _S17
RS_S17         1 2 1G
.MODEL         _S17 VSWITCH ROFF=1T RON=1 VOFF=0.8 VON=1.9
.ENDS  08_OP_AMP_COMPLETE_S17_THS6222
*
.SUBCKT 08_OP_AMP_COMPLETE_S18_THS6222 1 2 3 4  
S_S18         3 4 1 2 _S18
RS_S18         1 2 1G
.MODEL         _S18 VSWITCH ROFF=1T RON=1 VOFF=0.1 VON=1.2
.ENDS  08_OP_AMP_COMPLETE_S18_THS6222
*
.SUBCKT 08_OP_AMP_COMPLETE_S19_THS6222 1 2 3 4  
S_S19         3 4 1 2 _S19
RS_S19         1 2 1G
.MODEL         _S19 VSWITCH ROFF=1T RON=1 VOFF=0.1 VON=1.2
.ENDS  08_OP_AMP_COMPLETE_S19_THS6222
*
.SUBCKT 08_OP_AMP_COMPLETE_S20_THS6222 1 2 3 4  
S_S20         3 4 1 2 _S20
RS_S20         1 2 1G
.MODEL         _S20 VSWITCH ROFF=1T RON=1 VOFF=0.1 VON=1.2
.ENDS  08_OP_AMP_COMPLETE_S20_THS6222
*
.SUBCKT 08_OP_AMP_COMPLETE_S21_THS6222 1 2 3 4  
S_S21         3 4 1 2 _S21
RS_S21         1 2 1G
.MODEL         _S21 VSWITCH ROFF=1T RON=1 VOFF=0.8 VON=1.9
.ENDS  08_OP_AMP_COMPLETE_S21_THS6222
*
.SUBCKT 08_OP_AMP_COMPLETE_S22_THS6222 1 2 3 4  
S_S22         3 4 1 2 _S22
RS_S22         1 2 1G
.MODEL         _S22 VSWITCH ROFF=1T RON=1 VOFF=0.1 VON=1.2
.ENDS  08_OP_AMP_COMPLETE_S22_THS6222
*
.SUBCKT 08_OP_AMP_COMPLETE_S23_THS6222 1 2 3 4  
S_S23         3 4 1 2 _S23
RS_S23         1 2 1G
.MODEL         _S23 VSWITCH ROFF=1T RON=1 VOFF=0.8 VON=1.9
.ENDS  08_OP_AMP_COMPLETE_S23_THS6222
*
.SUBCKT 08_OP_AMP_COMPLETE_S24_THS6222 1 2 3 4  
S_S24         3 4 1 2 _S24
RS_S24         1 2 1G
.MODEL         _S24 VSWITCH ROFF=1T RON=1 VOFF=0.1 VON=1.2
.ENDS  08_OP_AMP_COMPLETE_S24_THS6222
*
.SUBCKT 08_OP_AMP_COMPLETE_S25_THS6222 1 2 3 4  
S_S25         3 4 1 2 _S25
RS_S25         1 2 1G
.MODEL         _S25 VSWITCH ROFF=1T RON=1 VOFF=0.1 VON=1.2
.ENDS  08_OP_AMP_COMPLETE_S25_THS6222
*
.SUBCKT 08_OP_AMP_COMPLETE_S26_THS6222 1 2 3 4  
S_S26         3 4 1 2 _S26
RS_S26         1 2 1G
.MODEL         _S26 VSWITCH ROFF=1T RON=1 VOFF=0.8 VON=1.9
.ENDS  08_OP_AMP_COMPLETE_S26_THS6222
*
.SUBCKT 08_OP_AMP_COMPLETE_S27_THS6222 1 2 3 4  
S_S27         3 4 1 2 _S27
RS_S27         1 2 1G
.MODEL         _S27 VSWITCH ROFF=1T RON=1 VOFF=0.1 VON=1.2
.ENDS  08_OP_AMP_COMPLETE_S27_THS6222
*
.SUBCKT 08_OP_AMP_COMPLETE_S28_THS6222 1 2 3 4  
S_S28         3 4 1 2 _S28
RS_S28         1 2 1G
.MODEL         _S28 VSWITCH ROFF=1T RON=1 VOFF=0.1 VON=1.2
.ENDS  08_OP_AMP_COMPLETE_S28_THS6222
*
.SUBCKT 08_OP_AMP_COMPLETE_S29_THS6222 1 2 3 4  
S_S29         3 4 1 2 _S29
RS_S29         1 2 1G
.MODEL         _S29 VSWITCH ROFF=1T RON=1 VOFF=0.8 VON=1.9
.ENDS  08_OP_AMP_COMPLETE_S29_THS6222
*
.SUBCKT 08_OP_AMP_COMPLETE_S3_THS6222 1 2 3 4  
S_S3         3 4 1 2 _S3
RS_S3         1 2 1G
.MODEL         _S3 VSWITCH ROFF=1T RON=1 VOFF=0.8 VON=1.9
.ENDS  08_OP_AMP_COMPLETE_S3_THS6222
*
.SUBCKT 08_OP_AMP_COMPLETE_S30_THS6222 1 2 3 4  
S_S30         3 4 1 2 _S30
RS_S30         1 2 1G
.MODEL         _S30 VSWITCH ROFF=1T RON=1 VOFF=0.1 VON=1.2
.ENDS  08_OP_AMP_COMPLETE_S30_THS6222
*
.SUBCKT 08_OP_AMP_COMPLETE_S31_THS6222 1 2 3 4  
S_S31         3 4 1 2 _S31
RS_S31         1 2 1G
.MODEL         _S31 VSWITCH ROFF=1E-3 RON=1 VOFF=0.8 VON=1.9
.ENDS  08_OP_AMP_COMPLETE_S31_THS6222
*
.SUBCKT 08_OP_AMP_COMPLETE_S33_THS6222 1 2 3 4  
S_S33         3 4 1 2 _S33
RS_S33         1 2 1G
.MODEL         _S33 VSWITCH ROFF=1E-3 RON=1 VOFF=0.8 VON=1.9
.ENDS  08_OP_AMP_COMPLETE_S33_THS6222
*
.SUBCKT 08_OP_AMP_COMPLETE_S35_THS6222 1 2 3 4  
S_S35         3 4 1 2 _S35
RS_S35         1 2 1G
.MODEL         _S35 VSWITCH ROFF=2E-3 RON=2 VOFF=0.8 VON=1.9
.ENDS  08_OP_AMP_COMPLETE_S35_THS6222
*
.SUBCKT 08_OP_AMP_COMPLETE_S37_THS6222 1 2 3 4  
S_S37         3 4 1 2 _S37
RS_S37         1 2 1G
.MODEL         _S37 VSWITCH ROFF=2E-3 RON=2 VOFF=0.8 VON=1.9
.ENDS  08_OP_AMP_COMPLETE_S37_THS6222
*
.SUBCKT 08_OP_AMP_COMPLETE_S8_THS6222 1 2 3 4  
S_S8         3 4 1 2 _S8
RS_S8         1 2 1G
.MODEL         _S8 VSWITCH ROFF=1T RON=1 VOFF=0.1 VON=1.2
.ENDS  08_OP_AMP_COMPLETE_S8_THS6222
*
.SUBCKT 08_OP_AMP_COMPLETE_S9_THS6222 1 2 3 4  
S_S9         3 4 1 2 _S9
RS_S9         1 2 1G
.MODEL         _S9 VSWITCH ROFF=1T RON=1 VOFF=0.1 VON=1.2
.ENDS  08_OP_AMP_COMPLETE_S9_THS6222
*
.SUBCKT AOL_1_THS6222 VC+ VC- IOUT+ IOUT-
.PARAM GAIN = 0.02
.PARAM IPOS = .5
.PARAM INEG = -.5
G1 IOUT+ IOUT- VALUE={LIMIT(GAIN*V(VC+,VC-),INEG,IPOS)}
.ENDS  AOL_1_THS6222
*
.SUBCKT AOL_2_THS6222 VC+ VC- IOUT+ IOUT-
.PARAM GAIN = 1
.PARAM IPOS = 2310
.PARAM INEG = -2310
G1 IOUT+ IOUT- VALUE={LIMIT(GAIN*V(VC+,VC-),INEG,IPOS)}
.ENDS  AOL_2_THS6222
*
.SUBCKT CLAMP_AMP_LO_THS6222 VC+ VC- VIN COM VO+ VO-
.PARAM G=1
GVO+ COM VO+ VALUE = {IF(V(VIN,COM)>V(VC+,COM),((V(VIN,COM)-V(VC+,COM))*G),0)}
GVO- COM VO- VALUE = {IF(V(VIN,COM)<V(VC-,COM),((V(VC-,COM)-V(VIN,COM))*G),0)}
.ENDS  CLAMP_AMP_LO_THS6222
*
.SUBCKT CLAWN_THS6222 VC+ VC- IOUT+ IOUT-
G1 IOUT+ IOUT- TABLE {(V(VC+,VC-))} =
+(0, 1.1E-3)
+(212, 1.4E-3)
+(580, 3.5E-3)
+(800, 8E-3)
+(1000, 60E-3)
.ENDS  CLAWN_THS6222
*
.SUBCKT CLAWP_THS6222 VC+ VC- IOUT+ IOUT-
G1 IOUT+ IOUT- TABLE {(V(VC+,VC-))} =
+(0, 1.1E-3)
+(212, 1.4E-3)
+(580, 3.5E-3)
+(800, 8E-3)
+(1000, 60E-3)
.ENDS  CLAWP_THS6222
*
.SUBCKT CLAW_SRC_THS6222 VC+ VC- IOUT+ IOUT-
.PARAM GAIN = 2000
.PARAM IPOS = 4000
.PARAM INEG = -4000
G1 IOUT+ IOUT- VALUE={LIMIT(GAIN*V(VC+,VC-),INEG,IPOS)}
.ENDS  CLAW_SRC_THS6222
*
.SUBCKT ESD_OUT_THS6222 OUT VCC VEE
.MODEL ESD_SW VSWITCH(RON=50 ROFF=1E12 VON=500E-3 VOFF=450E-3)
S1 VCC OUT OUT VCC ESD_SW
S2 OUT VEE VEE OUT ESD_SW
.ENDS  ESD_OUT_THS6222
*
.SUBCKT FEMT_THS6222 1 2
.PARAM FLWF=10
.PARAM NLFF=2600
.PARAM NVRF=2600
.PARAM GLFF={PWR(FLWF,0.25)*NLFF/1164}
.PARAM RNVF={1.184*PWR(NVRF,2)}
.MODEL DVNF D KF={PWR(FLWF,0.5)/1E11} IS=1.0E-16
I1 0 7 10E-3
I2 0 8 10E-3
D1 7 0 DVNF
D2 8 0 DVNF
E1 3 6 7 8 {GLFF}
R1 3 0 1E9
R2 3 0 1E9
R3 3 6 1E9
E2 6 4 5 0 10
R4 5 0 {RNVF}
R5 5 0 {RNVF}
R6 3 4 1E9
R7 4 0 1E9
G1 1 2 3 4 1E-6
.ENDS  FEMT_THS6222
*
.SUBCKT FEMTB_THS6222 1 2
.PARAM FLWF=10
.PARAM NLFF=19000
.PARAM NVRF=19000
.PARAM GLFF={PWR(FLWF,0.25)*NLFF/1164}
.PARAM RNVF={1.184*PWR(NVRF,2)}
.MODEL DVNF D KF={PWR(FLWF,0.5)/1E11} IS=1.0E-16
I1 0 7 10E-3
I2 0 8 10E-3
D1 7 0 DVNF
D2 8 0 DVNF
E1 3 6 7 8 {GLFF}
R1 3 0 1E9
R2 3 0 1E9
R3 3 6 1E9
E2 6 4 5 0 10
R4 5 0 {RNVF}
R5 5 0 {RNVF}
R6 3 4 1E9
R7 4 0 1E9
G1 1 2 3 4 1E-6
.ENDS  FEMTB_THS6222
*
.SUBCKT IQ_SRC_THS6222 VC+ VC- IOUT+ IOUT-
.PARAM GAIN = 1E-3
G1 IOUT+ IOUT- VALUE={IF( (V(VC+,VC-)<=0),0,GAIN*V(VC+,VC-) )}
.ENDS  IQ_SRC_THS6222
*
.SUBCKT VCM_CLAMP_THS6222 VIN+ VIN- IOUT- IOUT+ VP+ VP-
.PARAM GAIN = 1
G1 IOUT+ IOUT- VALUE={LIMIT(GAIN*V(VIN+,VIN-),V(VP-,VIN-), V(VP+,VIN-))}
.ENDS  VCM_CLAMP_THS6222
*
.SUBCKT VNSE_THS6222 1 2
.PARAM FLW=10
.PARAM NLF=2000
.PARAM NVR=1.9
.PARAM GLF={PWR(FLW,0.25)*NLF/1164}
.PARAM RNV={1.184*PWR(NVR,2)}
.MODEL DVN D KF={PWR(FLW,0.5)/1E11} IS=1.0E-16
I1 0 7 10E-3
I2 0 8 10E-3
D1 7 0 DVN
D2 8 0 DVN
E1 3 6 7 8 {GLF}
R1 3 0 1E9
R2 3 0 1E9
R3 3 6 1E9
E2 6 4 5 0 10
R4 5 0 {RNV}
R5 5 0 {RNV}
R6 3 4 1E9
R7 4 0 1E9