* THS6301
*****************************************************************************
* (C) Copyright 2018 Texas Instruments Incorporated. All rights reserved.
*****************************************************************************
** This model is designed as an aid for customers of Texas Instruments.
** TI and its licensors and suppliers make no warranties, either expressed
** or implied, with respect to this model, including the warranties of 
** merchantability or fitness for a particular purpose.  The model is
** provided solely on an "as is" basis.  The entire risk as to its quality
** and performance is with the customer.
*****************************************************************************
*
* This model is subject to change without notice. Texas Instruments
* Incorporated is not responsible for updating this model
*
*****************************************************************************
*
** Released by: Texas Instruments Inc.
* Part: THS6301
* Date: 07/12/2018
* Model Type: All In One
* Simulator: TINA
* Simulator Version: 9
* EVM Order Number: N/A 
* EVM Users Guide:  N/A 
* Datasheet: 
*
* Model Version: 1.0
*
*****************************************************************************
*
* Updates:
*
* Version 1.0 : Release to Web
*
*****************************************************************************
* The following parameters are modeled: 
* AC frequency response, Supply Current, Output Voltage Level, 
* Output Impendance, Noise
*
*****************************************************************************



.subckt THS6301 B1 B2 GND IADJ INM INP OUTM OUTP VS
XI0 B1 B2 GND IADJ INM INP OUTM OUTP VS THS6301_HT1
.ends







.subckt BALUN V VCM VN VP
R9 V NET023  1e-6
R4 NET035 VCM  1e-6
R5 NET023 NET016  1e-6
R3 NET027 VN  1e-6
R6 0 NET021  1e-6
R7 NET023 NET019  1e-6
R8 0 NET017  1e-6
R1 NET022 VP  1e-6
XTRANSFORMEREK0 NET016 NET021 NET022 NET035 TRANSFORMEREK0
XTRANSFORMEREK1 NET019 NET017 NET035 NET027 TRANSFORMEREK1
.ends BALUN


.subckt ANALOG_BUFFER VOUT VIN
R0 VIN 0  1e9
R1 VOUT 0  1e9
E0 VOUT 0 VIN 0 1
.ends ANALOG_BUFFER


.subckt THS6301_AMP2_OUTPUTCIR_HT1 PD VCC VCCMAIN VEE VEEMAIN VIN VOUT
CP1 NET56 0  1e-15
COUT NET76 NET49  1e-15
CBYP NET81 NET51  1e-15
CP2 NET54 0  1e-15
LOUT2 NET57 NET59 8.5e-9
LOUT1 NET81 NET57 500e-12
VPROBE3 NET106 NET74 0
V3 NET71 NET110 0
V4 NET69 NET114 0
VPROBE4 NET104 NET83 0
VCURSOURCEDETECT NET83 NET66 0
VPROBE1 NET98 NET81 0
VCURSINKDETECT VOUT NET66 0
XI2 NET76 VIN ANALOG_BUFFER
XI11 NET115 NET83 ANALOG_BUFFER
RP1 NET81 NET56  1e-3
RBYP NET51 NET57  1e-3
RP2 NET59 NET54  1e-3
RVIMONINV VIMONINV 0  1e9
RVIMON VIMON 0  1e9
ROUTMINOR NET49 NET81  10
RISC NET59 NET83  1
HVIMON VIMON 0 VCURSOURCEDETECT  1
HVIMONINV VIMONINV 0 VCURSINKDETECT  1
XI1 NET98 NET76 VIMON OutputCir_Rout PARAMS: Ro_Iout_0A=25 RIsc=1 Isc=100e-3 Islope_const=10e-3
XI0 VCCMAIN VEEMAIN VIMON PD OutputCir_ILOAD
XI14 NET106 NET83 DiodeIdeal
XI15 NET104 NET119 DiodeIdeal
XISOURCEVLIMIT NET114 NET115 VCC VEE OutputCir_IscVlimit PARAMS: RIsc=1 IscVsVsupply_X1=6
+ IscVsVsupply_Y1= {ABS(160e-3)}  IscVsVsupply_X2=12 IscVsVsupply_Y2= {ABS(160e-3)}
+ 
XISINKVLIMIT NET110 NET59 VCC VEE OutputCir_IscVlimit PARAMS: RIsc=1 IscVsVsupply_X1=6
+ IscVsVsupply_Y1= {ABS(-160e-3)}  IscVsVsupply_X2=12 IscVsVsupply_Y2= {ABS(-160e-3)}
+ 
XIVOL NET119 VEE VIMONINV OutputCir_VOHVOL PARAMS: VSUPPLYREF=0 VOUTvsIOUT_X1=
+ {ABS(0)}  VOUTvsIOUT_Y1=1 VOUTvsIOUT_X2= {ABS(-156e-3)}  VOUTvsIOUT_Y2=2.6

XIVOH VCC NET74 VIMON OutputCir_VOHVOL PARAMS: VSUPPLYREF=12 VOUTvsIOUT_X1=
+ {ABS(0)}  VOUTvsIOUT_Y1=11 VOUTvsIOUT_X2= {ABS(158e-3)}  VOUTvsIOUT_Y2=10.2
+ 
XI25 NET69 NET59 OutputCir_IscDiodeIdeal PARAMS: IS=10e-15 N=50e-3
XI23 NET71 NET115 OutputCir_IscDiodeIdeal PARAMS: IS=10e-15 N=50e-3
.ends THS6301_AMP2_OUTPUTCIR_HT1


.subckt ZIN IN1 IN2 OUT1 OUT2 PARAMS: R5=100e-3 R4=100e-3 C3=50e-15 C2=50e-15
+ C1=50e-15 R2=10e9 R1=10e9 R3=1e9

R5 IN2 OUT2   {R5} 
R4 IN1 OUT1   {R4} 
C3 OUT1 OUT2   {C3} 
C2 OUT2 0   {C2} 
C1 OUT1 0   {C1} 
GR2 OUT2 0 OUT2 0  {1/R2} 
GR1 0 OUT1 0 OUT1  {1/R1} 
GR3 OUT1 OUT2 OUT1 OUT2  {1/R3} 
.ends ZIN


.subckt DOMPOLE A B C PARAMS: R2=1e-3 R1=2.653e6 C2=1e-15 C1=10e-12
R2 NET7 A   {R2} 
R1 B A   {R1} 
C2 NET7 C   {C2} 
C1 A B   {C1} 
.ends DOMPOLE


.subckt NONDOMPOLE C VIN VOUT PARAMS: L=1e-12 Gain=1 C=226.7e-12 Rp=1e9 Rs=1
L0 NET020 VOUT  {L} 
E0 NET4 0 VIN 0  {Gain} 
C1 NET019 C   {C} 
R3 VOUT C   {Rp} 
R2 VOUT NET019  1e-3
R1 NET020 NET4   {Rs} 
.ends NONDOMPOLE


.subckt RECOVERYCIRCUIT A B VCC VEE PARAMS: VRecL=-10e-3 VRecH=-10e-3
XI2 NET8 NET014 DiodeIdeal
XI3 NET014 NET9 DiodeIdeal
VBRIDGE NET014 A 0
VPROBE A B 0
VRECL NET9 VEE {VRecL} 
VRECH VCC NET8 {VRecH} 
.ends RECOVERYCIRCUIT


.subckt THS6301_AMP2_HT1 VINP VOUT VCC PD VEE VINM
XI30 POWER VCC_INT VCC VEE_INT VEE NET61 VOUT THS6301_AMP2_OUTPUTCIR_HT1
XI53 VINP VINM NET1 NET2 ZIN PARAMS: R5=100e-3 R4=100e-3 C3=50e-15 C2=50e-15
+ C1=50e-15 R2=10e9 R1=10e9 R3=1e9

XI58 HIGHZ NET32 0 DOMPOLE PARAMS: R2=1e-3 R1=1e6 C2=1e-15 C1=10e-12
XI52 VINP_INT VINM_INT NET32 NET31 VEE_INT VCC_INT POWER GmItail PARAMS: Choice=1
+ Gm=100e-3 SBF=1 ITAILMAX_X1=3 ITAILMAX_Y1=100e-3 ITAILMAX_X2=5 ITAILMAX_Y2=100e-3
+ ITAILMIN_X1=3 ITAILMIN_Y1=100e-3 ITAILMIN_X2=5 ITAILMIN_Y2=100e-3

XI26 0 NET51 NET61 NONDOMPOLE PARAMS: L=1e-12 Gain=1 C=10e-12 Rp=1e9 Rs=1
XI28 NET41 NET51 VCC_INT VEE_INT RECOVERYCIRCUIT PARAMS: VRecL=-10e-3 VRecH=-10e-3
VPROBE2 HIGHZ NET41
V1 NET1 NET11 0
VDOMPOLEBIAS NET32 0 0
VPROBE1 NET31 HIGHZ
V2 NET11 VINP_INT 0
V0 NET2 VINM_INT 0
R14 VCC_INT PD  10e6
XAHDLINV3 PD PDINV VCC_INT VEE_INT HPA_INV_IDEAL
XAHDLINV1 PDINV POWER VCC_INT VEE_INT HPA_INV_IDEAL
XI13 VEE_INT VEE ANALOG_BUFFER
XI12 VCC_INT VCC ANALOG_BUFFER
.ends THS6301_AMP2_HT1


.subckt VINRANGE1 VCC VEE VIN VOUT PARAMS: VIL=100e-3 VIH=100e-3
XIDVIH NET12 NET16 DiodeIdeal
XIDVIL NET16 NET20 DiodeIdeal
R0 VIN NET16  1e-3
V0 NET16 VOUT 0
VIL NET20 VEE {VIL} 
VIH VCC NET12 {VIH} 
.ends VINRANGE1


.subckt THS6301_AMP1_HT1 VINP VOUT B2 VCC PD VEE B1 VINM
XI52 VINP_INT VINM_INT NET32 NET31 VEE_INT VCC_INT POWER B1 B2 THS6301_GmItail_HT1
XI53 VINP VINM NET1 NET2 ZIN PARAMS: R5=100e-3 R4=100e-3 C3=50e-15 C2=50e-15
+ C1=50e-15 R2=10e9 R1=10e9 R3=1e9

XI58 HIGHZ NET32 0 DOMPOLE PARAMS: R2=1e-3 R1=1e6 C2=1e-15 C1=5e-12
XI18 NET11 0 Inoise PARAMS: X=1e-3 Y=100e-15 Z=1e-15
XI63 NET2 0 Inoise PARAMS: X=1e-3 Y=100e-15 Z=1e-15
XI26 0 NET51 NET61 NONDOMPOLE PARAMS: L=1e-12 Gain=1 C=10e-12 Rp=1e9 Rs=1
XI17 NET1 NET11 Vnoise PARAMS: X=1e-3 Y=100e-9 Z=160e-12
XI59 NET21 NET11 Vinoffset PARAMS: TA=25 VOS=1e-6 DRIFT=100e-9
XI28 NET41 NET51 VCC_INT VEE_INT RECOVERYCIRCUIT PARAMS: VRecL=-10e-3 VRecH=-10e-3
XI67 VCC_INT VEE_INT NET21 VINP_INT VINRANGE1 PARAMS: VIL=100e-3 VIH=100e-3
XI68 VCC_INT VEE_INT NET22 VINM_INT VINRANGE1 PARAMS: VIL=100e-3 VIH=100e-3
VPROBE2 HIGHZ NET41
VDOMPOLEBIAS NET32 0 0
VPROBE1 NET31 HIGHZ
V0 NET2 NET22 0
R14 VCC_INT PD  10e6
XAHDLINV3 PD PDINV VCC_INT VEE_INT HPA_INV_IDEAL
XAHDLINV1 PDINV POWER VCC_INT VEE_INT HPA_INV_IDEAL
XI13 VEE_INT VEE ANALOG_BUFFER
XI70 VOUT NET61 ANALOG_BUFFER
XI12 VCC_INT VCC ANALOG_BUFFER
.ends THS6301_AMP1_HT1


.subckt THS6301_HT1 B1 B2 GND IADJ INM INP OUTM OUTP VS
XI0 NET064 NET061 NET066 NET067 NET060 NET056 NET070 NET071 NET072 VS GND THS6301_Iq_HT1
XI14 B2 B1 NET072 NET071 NET070 NET056 NET060 NET067 NET066 NET061 NET064 THS6301_Decoder_HT1
XI8 NET065 OUTP VS PD GND NET055 THS6301_AMP2_HT1
XI7 NET063 OUTM VS PD GND NET058 THS6301_AMP2_HT1
XI12 NET0126 NET076 ANALOG_BUFFER
XI5 INM NET063 B2 VS PD GND B1 NET068 THS6301_AMP1_HT1
XI6 INP NET065 B2 VS PD GND B1 NET069 THS6301_AMP1_HT1
R23 NET0152 B1  10e6
R22 NET0152 B2  10e6
R20 VS PD  10e6
R17 NET057 NET055  1.35e3
R16 NET058 NET057  1.35e3
R15 NET055 OUTP  300
R14 NET058 OUTM  300
R10 NET068 NET063  320
GR11 NET068 NET33 VALUE { V(NET068,NET33)/54 }
R12 NET069 NET065  320
GR13 NET33 NET069 VALUE { V(NET33,NET069)/54 }
R9 INM NET0126  5e3
R8 NET0126 INP  5e3
R18 GND NET076  2e6
R19 NET076 VS  2e6
V5 NET0152 0 1.45
V4 IADJ 0 12
.ends THS6301_HT1




.SUBCKT HPA_INV_IDEAL 1 2 VDD VSS
E1 2 0 VALUE = { IF( V(1)> (V(VDD)+V(VSS))/2, V(VSS), V(VDD) ) }
.ENDS



.SUBCKT TRANSFORMEREK0 1 2 3 4
K1 L1 L2 0.5
L1 1 2 10uH
L2 3 4 10uH
.ends



.SUBCKT TRANSFORMEREK1 1 2 3 4
K1 L1 L2 0.5
L1 1 2 10uH
L2 3 4 10uH
.ends


.SUBCKT THS6301_Decoder_HT1 B2 B1 SIG1 SIG2 SIG3 SIG4 SIG5 SIG6 SIG7 SIG8 SIG9

ESIG1 SIG1 0 VALUE = { IF (                V(B2) <  0.6   &                  V(B1) <  0.6, 1, 0 ) }
ESIG2 SIG2 0 VALUE = { IF (                V(B2) <  0.6   &   0.6 <= V(B1) & V(B1) <= 2.3, 1, 0 ) } 
ESIG3 SIG3 0 VALUE = { IF (                V(B2) <  0.6   &   2.3 <  V(B1)               , 1, 0 ) } 

ESIG4 SIG4 0 VALUE = { IF ( 0.6 <= V(B2) & V(B2) <= 2.3   &                  V(B1) <  0.6, 1, 0 ) } 
ESIG5 SIG5 0 VALUE = { IF ( 0.6 <= V(B2) & V(B2) <= 2.3   &   0.6 <= V(B1) & V(B1) <= 2.3, 1, 0 ) } 
ESIG6 SIG6 0 VALUE = { IF ( 0.6 <= V(B2) & V(B2) <= 2.3   &   2.3 <  V(B1)               , 1, 0 ) }

ESIG7 SIG7 0 VALUE = { IF ( 2.3 <  V(B2)                  &                  V(B1) <  0.6, 1, 0 ) }
ESIG8 SIG8 0 VALUE = { IF ( 2.3 <  V(B2)                  &   0.6 <= V(B1) & V(B1) <= 2.3, 1, 0 ) }
ESIG9 SIG9 0 VALUE = { IF ( 2.3 <  V(B2)                  &   2.3 <  V(B1)               , 1, 0 ) }

.ENDS



.SUBCKT THS6301_GmItail_HT1  Vinp Vinm Ioutp Ioutm VEE VCC PD B1 B2


.PARAM Choice 		= 1

.PARAM SBF		= 1 

.PARAM ITAILMAX_X1 	= { 3.0 }
.PARAM ITAILMAX_Y1 	= { 10m }

.PARAM ITAILMAX_X2 	= { 5.0 }
.PARAM ITAILMAX_Y2 	= { 10m }

.PARAM ITAILMIN_X1 	= { 3.0 }
.PARAM ITAILMIN_Y1 	= { 10m }

.PARAM ITAILMIN_X2 	= { 5.0 }
.PARAM ITAILMIN_Y2 	= { 10m }



.PARAM Choice1 		= { IF ( Choice == 1,  1, 0 ) }
.PARAM Choice2 		= { IF ( Choice == 2,  1, 0 ) }
.PARAM Choice3		= { IF ( Choice == 3,  1, 0 ) }
.PARAM Choice11 	= { IF ( Choice == 11, 1, 0 ) }




X1 PD PDINV VCC VEE LOGIC1 0 DLSINV
VLOGIC1 LOGIC1 0 1


.PARAM ITAILMAX_SLOPE = 
+ { ( ITAILMAX_Y2 - ITAILMAX_Y1 ) / ( ITAILMAX_X2 - ITAILMAX_X1 ) }
.PARAM ITAILMAX_INTCP = 
+ { ITAILMAX_Y1 - ITAILMAX_SLOPE * ITAILMAX_X1 }

EITAILMAX ITAILMAX 0 VALUE = 
+ { ITAILMAX_SLOPE * V(VCC,VEE) + ITAILMAX_INTCP  }




.PARAM ITAILMIN_SLOPE = 
+ { ( ITAILMIN_Y2 - ITAILMIN_Y1 ) / ( ITAILMIN_X2 - ITAILMIN_X1 ) }
.PARAM ITAILMIN_INTCP = 
+ { ITAILMIN_Y1 - ITAILMIN_SLOPE * ITAILMIN_X1 }

EITAILMIN ITAILMIN 0 VALUE = 
+ { ITAILMIN_SLOPE * V(VCC,VEE) + ITAILMIN_INTCP  }


.PARAM Gm1 		= { 93.15m * 275/475 * 1.062 }
.PARAM Gm2 		= { 93.15m * 200/475 * 1.081 }
.PARAM Gm3 		= { 93.15m * 475/475 * 1.000 }
.PARAM Gm4 		= { 93.15m * 275/475 * 1.062 }
.PARAM Gm5 		= { 93.15m * 0/475   * 1.000 }
.PARAM Gm6 		= { 93.15m * 425/475 * 1.017 }
.PARAM Gm7 		= { 93.15m * 450/475 * 1.009 }
.PARAM Gm8 		= { 93.15m * 325/475 * 1.048 }
.PARAM Gm9 		= { 93.15m * 400/475 * 1.025 }



X2 B2 B1 SIG1 SIG2 SIG3 SIG4 SIG5 SIG6 SIG7 SIG8 SIG9 THS6301_Decoder_HT1


EGm Gm 0 VALUE = { Gm1 * V(SIG1) + Gm2 * V(SIG2) + Gm3 * V(SIG3) + Gm4 * V(SIG4) + Gm5 * V(SIG5) +
+                  Gm6 * V(SIG6) + Gm7 * V(SIG7) + Gm8 * V(SIG8) + Gm9 * V(SIG9)                  } 



G1 IOUTP IOUTM VALUE = { ( 1-V(PDINV) ) * (
+ Choice1  * ( LIMIT ( V(Gm) * V(VINP,VINM) , -V(ITAILMIN), V(ITAILMAX) ) ) +
+ Choice2  * ( V(Gm) * (V(ITAILMAX)/V(Gm)) * TANH( V(VINP,VINM) / (V(ITAILMAX)/V(Gm)) )   ) +	
+ Choice3  * ( V(Gm) * V(VINP,VINM) / ( 1 + V(Gm)/V(ITAILMAX) * ABS( V(VINP,VINM)
+ ) ) ) +              		

+ Choice11 * ( LIMIT ( ( V(Gm) * EXP ( LIMIT ( SBF * ABS(V(VINP,VINM)) , -LOG(1E100),
+ LOG(1E100) ) ) ) 

+                     * V(VINP,VINM) , -V(ITAILMIN), V(ITAILMAX) ) ) +
+ 0					   )	}

.ENDS




.SUBCKT THS6301_Iq_HT1 SIG9 SIG8 SIG7 SIG6 SIG5 SIG4 SIG3 SIG2 SIG1 VCC VEE

G1 VCC VEE VALUE = { V(SIG1) * 15m + V(SIG2) * 9.60m + V(SIG3) * 44.4m +  
+                    V(SIG4) * 16m + V(SIG5) * 1.92m + V(SIG6) * 28.5m +
+                    V(SIG7) * 37m + V(SIG8) * 20.0m + V(SIG9) * 26.5m     } 


.ENDS





.SUBCKT AVG VIN1 VIN2 VOUT
E1 VOUT 0 VALUE = { ( V(VIN1) + V(VIN2) ) / 2 }
.ENDS






.SUBCKT CMRR A B C PARAMS:

+ CMRR_DC 	        = -100
+ CMRR_f3dB             = 50e3
+ CMRR_f3dB_FudgeFactor = 3.4

.PARAM CMRR       = {0-CMRR_DC}
.PARAM FCMRR	  = {CMRR_f3dB * CMRR_f3dB_FudgeFactor}

X1 A B C 0 CMRR_NEW PARAMS: CMRR = {CMRR} FCMRR = {FCMRR}
.ENDS


.SUBCKT DiodeIdeal NEG POS











G1 POS NEG VALUE = { IF ( V(POS,NEG) <= 0 , 0, V(POS,NEG)*0.01G ) }
R0 POS NEG 1000G



.ENDS


.SUBCKT DomPoleBias VIN1 VIN2 VOUT
E1 VOUT 0 VALUE = { ( V(VIN1) + V(VIN2) ) / 2 * 1/2}
R1 VOUT 0 1G


.ENDS


.SUBCKT GmItail  Vinp Vinm Ioutp Ioutm VEE VCC PD PARAMS:
+ Choice 	= 2

+ Gm 	        = 3.77e-2
+ SBF		= 1 

+ ITAILMAX_X1 	= { 3.0 }
+ ITAILMAX_Y1 	= { 10m }

+ ITAILMAX_X2 	= { 5.0 }
+ ITAILMAX_Y2 	= { 10m }

+ ITAILMIN_X1 	= { 3.0 }
+ ITAILMIN_Y1 	= { 10m }

+ ITAILMIN_X2 	= { 5.0 }
+ ITAILMIN_Y2 	= { 10m }




.PARAM Choice1 		= { IF ( Choice == 1,  1, 0 ) }
.PARAM Choice2 		= { IF ( Choice == 2,  1, 0 ) }
.PARAM Choice3		= { IF ( Choice == 3,  1, 0 ) }
.PARAM Choice11 	= { IF ( Choice == 11, 1, 0 ) }


X1 PD PDINV VCC VEE LOGIC1 0 DLSINV
VLOGIC1 LOGIC1 0 1




.PARAM ITAILMAX_SLOPE = 
+ { ( ITAILMAX_Y2 - ITAILMAX_Y1 ) / ( ITAILMAX_X2 - ITAILMAX_X1 ) }
.PARAM ITAILMAX_INTCP = 
+ { ITAILMAX_Y1 - ITAILMAX_SLOPE * ITAILMAX_X1 }

EITAILMAX ITAILMAX 0 VALUE = 
+ { ITAILMAX_SLOPE * V(VCC,VEE) + ITAILMAX_INTCP  }




.PARAM ITAILMIN_SLOPE = 
+ { ( ITAILMIN_Y2 - ITAILMIN_Y1 ) / ( ITAILMIN_X2 - ITAILMIN_X1 ) }
.PARAM ITAILMIN_INTCP = 
+ { ITAILMIN_Y1 - ITAILMIN_SLOPE * ITAILMIN_X1 }

EITAILMIN ITAILMIN 0 VALUE = 
+ { ITAILMIN_SLOPE * V(VCC,VEE) + ITAILMIN_INTCP  }






G1 IOUTP IOUTM VALUE = { ( 1-V(PDINV) ) * (
+ Choice1  * ( LIMIT ( Gm * V(VINP,VINM) , -V(ITAILMIN), V(ITAILMAX) ) ) +
+ Choice2  * ( Gm * (V(ITAILMAX)/Gm) * TANH( V(VINP,VINM) / (V(ITAILMAX)/Gm) )   ) +	
+ Choice3  * ( Gm * V(VINP,VINM) / ( 1 + Gm/V(ITAILMAX) * ABS( V(VINP,VINM) ) ) ) +              		
+ Choice11 * ( LIMIT ( ( Gm * EXP ( LIMIT ( SBF * ABS(V(VINP,VINM)) , -LOG(1E100), LOG(1E100) ) ) ) 
+                     * V(VINP,VINM) , -V(ITAILMIN), V(ITAILMAX) ) ) +

+ 0					   )	}

.ENDS

.SUBCKT Ibias VINP VINM PARAMS:
+ Choice       = 1

+ Ibias        = -10u
+ Ioffset      = 150n

+ TA           = 25
+ IbiasDrift   = 0
+ IoffsetDrift = 0

+ Ibiasp       =  -9.925u
+ Ibiasm       = -10.075u

.PARAM Choice1 = { IF ( Choice == 1, 1, 0 ) }
.PARAM Choice2 = { IF ( Choice == 2, 1, 0 ) }

.PARAM Ib = { Choice1 * Ibias   + Choice2 * (Ibiasp + Ibiasm)/2  }
.PARAM Io = { Choice1 * Ioffset + Choice2 * ABS(Ibiasp - Ibiasm) } 

EIb Ib 0 VALUE = { IbiasDrift   * TEMP + ( Ib - IbiasDrift   * TA ) }
EIo Io 0 VALUE = { IoffsetDrift * TEMP + ( Io - IoffsetDrift * TA ) }

GIbp VINP 0 VALUE = { V(Ib) + V(Io)/2 }
GIbm VINM 0 VALUE = { V(Ib) - V(Io)/2 }

.ENDS


.SUBCKT Inoise A B PARAMS:
+ X = { 1m  }
+ Y = { 100f }
+ Z = { 1f }
X1 A B FEMT PARAMS: NLFF = { Y/1f }  FLWF = { X } NVRF = { Z/1f }
.ENDS


.SUBCKT Inoisepd A B VCC VEE PD PARAMS:
+ X = { 1m  }
+ Y = { 100f }
+ Z = { 1f }
X1 A B VCC VEE PD FEMTPD PARAMS: NLFF = { Y/1f }  FLWF = { X } NVRF = { Z/1f }
.ENDS


.subckt Iq VCCmain VEEmain PD VEE VCC PARAMS:
+ IOFF = { 1n }

+ ION_X1 = { 0.0 }
+ ION_Y1 = { 1m }

+ ION_X2 = { 1.6 }
+ ION_Y2 = { 1m }

+ ION_X3 = { 1.9 }
+ ION_Y3 = { 1m }

+ ION_X4 = { 12.0 }
+ ION_Y4 = { 1m }



















EION_SEG1 ION_SEG1 0 VALUE = { IF ( 		          V(VCC,VEE) <= ION_X2, 1, 0 ) }
EION_SEG2 ION_SEG2 0 VALUE = { IF ( V(VCC,VEE) > ION_X2 & V(VCC,VEE) <= ION_X3, 1, 0 ) }
EION_SEG3 ION_SEG3 0 VALUE = { IF ( V(VCC,VEE) > ION_X3		              , 1, 0 ) }



.PARAM ION_SEG1_SLOPE = { ( ION_Y2 - ION_Y1 ) / ( ION_X2 - ION_X1 ) }
.PARAM ION_SEG1_INTCP = { ION_Y1 - ION_SEG1_SLOPE * ION_X1 }

.PARAM ION_SEG2_SLOPE = { ( ION_Y3 - ION_Y2 ) / ( ION_X3 - ION_X2 ) }
.PARAM ION_SEG2_INTCP = { ION_Y2 - ION_SEG2_SLOPE * ION_X2 }

.PARAM ION_SEG3_SLOPE = { ( ION_Y4 - ION_Y3 ) / ( ION_X4 - ION_X3 ) }
.PARAM ION_SEG3_INTCP = { ION_Y3 - ION_SEG3_SLOPE * ION_X3 }



EION ION 0 VALUE = { 	V(ION_SEG1) * ( ION_SEG1_SLOPE * V(VCC,VEE) + ION_SEG1_INTCP ) +
+			V(ION_SEG2) * ( ION_SEG2_SLOPE * V(VCC,VEE) + ION_SEG2_INTCP ) +
+ 			V(ION_SEG3) * ( ION_SEG3_SLOPE * V(VCC,VEE) + ION_SEG3_INTCP ) 	}



X1 PD PDINV VCC VEE LOGIC1 0 DLSINV
VLOGIC1 LOGIC1 0 1

G1 VCCMAIN VEEMAIN VALUE = { V(ION) * ( 1-V(PDINV) ) + IOFF * V(PDINV) }  

.ends


.SUBCKT OutputCir_ILOAD  VDD VSS VIMON PD
X1 PD PDINV VDD VSS LOGIC1 0 DLSINV
VLOGIC1 LOGIC1 0 1

G1 VDD 0 VALUE = {IF(V(VIMON) >= 0, V(VIMON)*( 1-V(PDINV) ), 0)}
G2 VSS 0 VALUE = {IF(V(VIMON)  < 0, V(VIMON)*( 1-V(PDINV) ), 0)}

.ENDS


.SUBCKT OutputCir_IscDiodeIdeal NEG POS PARAMS: 
+ IS = 1E-14
+ N  = 50m



G1 POS NEG_INT VALUE = { IF ( V(POS,NEG_INT) <= 0 , IS,  
+                             IS * ( EXP ( V(POS,NEG_INT)/25m * 1/N ) - 0 )  ) }  


V1 NEG_INT NEG {-N*0.8}











.ENDS


.SUBCKT OutputCir_IscVlimit A B VCC VEE PARAMS:
+RIsc 		 = { 1 }

+IscVsVsupply_X1 = { 3.0 }
+IscVsVsupply_Y1 = { 75m }

+IscVsVsupply_X2 = { 5.0 }
+IscVsVsupply_Y2 = { 100m }

.PARAM IscVsVsupply_SLOPE = 
+ { ( IscVsVsupply_Y2 - IscVsVsupply_Y1 ) / ( IscVsVsupply_X2 - IscVsVsupply_X1 ) }
.PARAM IscVsVsupply_INTCP = 
+ { IscVsVsupply_Y1 - IscVsVsupply_SLOPE * IscVsVsupply_X1 }

EIscVsVsupply IscVsVsupply 0 VALUE = 
+ { IscVsVsupply_SLOPE * V(VCC,VEE) + IscVsVsupply_INTCP  }

E1 A B VALUE = { V(IscVsVsupply) * RIsc }

.ENDS


.SUBCKT OutputCir_RecoveryAssist  VINP VINM IOUTP IOUTM VCC VEE RecoverySignal



X1 RecoverySignal RS VCC VEE LOGIC1 0 DLS
VLOGIC1 LOGIC1 0 1

G1 IOUTP IOUTM VALUE = { LIMIT ( 1m * V(VINP,VINM) *  V(RS) , -100m, 100m ) }

.ENDS


.SUBCKT OutputCir_Rout B A VIMON PARAMS:
+ Ro_Iout_0A = 100
+ RIsc = 1
+ Isc = 100m
+ Islope_const = 1/100

.PARAM Islope = { Islope_const * Isc }










G1 A B VALUE = { V(A,B) * 1 / ( (Ro_Iout_0A - RIsc) * Islope / ( Islope + ABS(V(VIMON)) ) )   }



.ENDS


.SUBCKT OutputCir_VOHVOLDiodeIdeal NEG POS

G1 POS NEG VALUE = { IF ( V(POS,NEG) <= 0 , 0, V(POS,NEG)*0.01G ) }
R0 POS NEG 1000G


.ENDS


.SUBCKT OutputCir_VOHVOL A B C  PARAMS:
+ VSUPPLYREF    = {2.5} 

+ VOUTvsIOUT_X1 = { ABS(0) }
+ VOUTvsIOUT_Y1 = { 2.4 }

+ VOUTvsIOUT_X2 = { ABS(100m) }
+ VOUTvsIOUT_Y2 = { 2.1 }


.PARAM VDROPvsIOUT_X1 = { VOUTvsIOUT_X1 }
.PARAM VDROPvsIOUT_Y1 = { ABS(VSUPPLYREF-VOUTvsIOUT_Y1) }

.PARAM VDROPvsIOUT_X2 = { VOUTvsIOUT_X2 }
.PARAM VDROPvsIOUT_Y2 = { ABS(VSUPPLYREF-VOUTvsIOUT_Y2) }


.PARAM VDROPvsIOUT_SLOPE = 
+ { ( VDROPvsIOUT_Y2 - VDROPvsIOUT_Y1 ) / ( VDROPvsIOUT_X2 - VDROPvsIOUT_X1 ) }
.PARAM VDROPvsIOUT_INTCP = 
+ { VDROPvsIOUT_Y1 - VDROPvsIOUT_SLOPE * VDROPvsIOUT_X1 }


EVDROPvsIOUT VDROPvsIOUT 0 VALUE = 
+ { VDROPvsIOUT_SLOPE * V(C) + VDROPvsIOUT_INTCP  }

E1 A B VALUE = { V(VDROPvsIOUT) }



.ENDS







.SUBCKT PSRR VDD VSS A B PARAMS:

+ PSRRP_DC    = -100
+ PSRRP_f3dB  = 100k

+ PSRRN_DC    = -90
+ PSRRN_f3dB  = 90k

.PARAM PSRRP       = {0-PSRRP_DC}
.PARAM PSRRN       = {0-PSRRN_DC}
.PARAM FPSRRP      = {PSRRP_f3dB}
.PARAM FPSRRN      = {PSRRN_f3dB}


X1 VDD VSS A B 0 PSRR_DUAL_NEW PARAMS:
+ PSRRP = {PSRRP} FPSRRP = {FPSRRP}
+ PSRRN = {PSRRN} FPSRRN = {FPSRRN}
.ENDS


.SUBCKT RecoveryCircuit_DiodeIdeal NEG POS

G1 POS NEG VALUE = { IF ( V(POS,NEG) <= 0 , 0, V(POS,NEG)*0.01G ) }
R0 POS NEG 1000G


.ENDS


.SUBCKT Vinoffset POS NEG PARAMS: 
+ TA     = 25
+ VOS    = 500u
+ DRIFT  = 10u 




E1 POS NEG VALUE = { DRIFT * TEMP + ( VOS - DRIFT * TA     ) }



.ENDS


.SUBCKT Vinrange_DiodeIdeal NEG POS

G1 POS NEG VALUE = { IF ( V(POS,NEG) <= 0 , 0, V(POS,NEG)*100k ) }
R0 POS NEG 1000G


.ENDS


.SUBCKT Vnoise A B PARAMS:
+ X = { 1m  }
+ Y = { 100n }
+ Z = { 5n  }
X1 A B VNSE PARAMS: NLF = { Y/1n } FLW = { X }  NVR = { Z/1n }
.ENDS












.SUBCKT VNSE  1 2 PARAMS: NLF = 10 FLW = 4  NVR = 4.6
.PARAM GLF={PWR(FLW,0.25)*NLF/1164}
.PARAM RNV={1.184*PWR(NVR,2)}
.MODEL DVN D KF={PWR(FLW,0.5)/1E11} IS=1.0E-16
I1 0 7 10E-3
I2 0 8 10E-3
D1 7 0 DVN
D2 8 0 DVN
E1 3 6 7 8 {GLF}
R1 3 0 1E9
R2 3 0 1E9
R3 3 6 1E9
E2 6 4 5 0 10
R4 5 0 {RNV}
R5 5 0 {RNV}
R6 3 4 1E9
R7 4 0 1E9
E3 1 2 3 4 1
C1 1 0 1E-15
C2 2 0 1E-15
C3 1 2 1E-15
.ENDS



.SUBCKT FEMT  1 2 PARAMS: NLFF = 0.1 FLWF = 0.001 NVRF = 0.1
.PARAM GLFF={PWR(FLWF,0.25)*NLFF/1164}
.PARAM RNVF={1.184*PWR(NVRF,2)}
.MODEL DVNF D KF={PWR(FLWF,0.5)/1E11} IS=1.0E-16
I1 0 7 10E-3
I2 0 8 10E-3
D1 7 0 DVNF
D2 8 0 DVNF
E1 3 6 7 8 {GLFF}
R1 3 0 1E9
R2 3 0 1E9
R3 3 6 1E9
E2 6 4 5 0 10
R4 5 0 {RNVF}
R5 5 0 {RNVF}
R6 3 4 1E9
R7 4 0 1E9
G1 1 2 3 4 1E-6
C1 1 0 1E-15
C2 2 0 1E-15
C3 1 2 1E-15
.ENDS



.SUBCKT FEMTPD  1 2 VCC VEE PD PARAMS: NLFF = 0.1 FLWF = 0.001 NVRF = 0.1
.PARAM GLFF={PWR(FLWF,0.25)*NLFF/1164}
.PARAM RNVF={1.184*PWR(NVRF,2)}
.MODEL DVNF D KF={PWR(FLWF,0.5)/1E11} IS=1.0E-16

X1 PD PDINV VCC VEE LOGIC1 0 DLSINV
VLOGIC1 LOGIC1 0 1

I1 0 7 10E-3
I2 0 8 10E-3
D1 7 0 DVNF
D2 8 0 DVNF
E1 3 6 7 8 {GLFF}
R1 3 0 1E9
R2 3 0 1E9
R3 3 6 1E9
E2 6 4 5 0 10
R4 5 0 {RNVF}
R5 5 0 {RNVF}
R6 3 4 1E9
R7 4 0 1E9
G1 1 2 VALUE = { ( 1-V(PDINV) ) * ( 1E-6 * V(3,4) ) }
C1 1 0 1E-15
C2 2 0 1E-15
C3 1 2 1E-15
.ENDS













.SUBCKT PSRR_SINGLE   VDD  VSS  VI  VO  GNDF PARAMS: PSRR = 130 FPSRR = 1.6
.PARAM PI = 3.141592
.PARAM RPSRR = 1
.PARAM GPSRR = {PWR(10,-PSRR/20)/RPSRR}
.PARAM LPSRR = {RPSRR/(2*PI*FPSRR)}
G1  GNDF 1 VDD VSS {GPSRR}
R1  1 2 {RPSRR}
L1  2 GNDF {LPSRR}
E1  VO VI 1 GNDF 1
C2  VDD VSS 10P
.ENDS

.SUBCKT PSRR_SINGLE_NEW   VDD  VSS  VI  VO  GNDF PARAMS: PSRR = 130 FPSRR = 1.6
.PARAM PI = 3.141592
.PARAM RPSRR = 1
.PARAM GPSRR = {PWR(10,-PSRR/20)/RPSRR}
.PARAM LPSRR = {RPSRR/(2*PI*FPSRR)}
G1  GNDF 1 VDD VSS {GPSRR}
R1  1 2 {RPSRR}
L1  2 GNDF {LPSRR}

EA  101 GNDF 1 GNDF 1
GRA  101 102 VALUE = { V(101,102)/1e6 }
CA  102 GNDF 1e3
EB  1 1a VALUE = {V(102,GNDF)}

E1  VO VI 1a GNDF 1
C2  VDD VSS 10P
.ENDS

.SUBCKT PSRR_DUAL   VDD  VSS  VI  VO  GNDF 
+ PARAMS: PSRRP = 130 FPSRRP = 1.6
+ PSRRN = 130 FPSRRN = 1.6
.PARAM PI = 3.141592
.PARAM RPSRRP = 1
.PARAM GPSRRP = {PWR(10,-PSRRP/20)/RPSRRP}
.PARAM LPSRRP = {RPSRRP/(2*PI*FPSRRP)}
.PARAM RPSRRN = 1
.PARAM GPSRRN = {PWR(10,-PSRRN/20)/RPSRRN}
.PARAM LPSRRN = {RPSRRN/(2*PI*FPSRRN)}
G1  GNDF 1 VDD GNDF {GPSRRP}
R1  1 2 {RPSRRP}
L1  2 GNDF {LPSRRP}

G2  GNDF 3 VSS GNDF {GPSRRN}
R2  3 4 {RPSRRN}
L2  4 GNDF {LPSRRN}

E1  VO VI VALUE = {V(1,GNDF) + V(3,GNDF)}
C3  VDD VSS 10P
.ENDS

.SUBCKT PSRR_DUAL_NEW   VDD  VSS  VI  VO  GNDF 
+ PARAMS: PSRRP = 130 FPSRRP = 1.6
+ PSRRN = 130 FPSRRN = 1.6
.PARAM PI = 3.141592
.PARAM RPSRRP = 1
.PARAM GPSRRP = {PWR(10,-PSRRP/20)/RPSRRP}
.PARAM LPSRRP = {RPSRRP/(2*PI*FPSRRP)}
.PARAM RPSRRN = 1
.PARAM GPSRRN = {PWR(10,-PSRRN/20)/RPSRRN}
.PARAM LPSRRN = {RPSRRN/(2*PI*FPSRRN)}

G1  GNDF 1 VDD GNDF {GPSRRP}
R1  1 2 {RPSRRP}
L1  2 GNDF {LPSRRP}

EA  101 GNDF 1 GNDF 1
GRA  101 102 VALUE = { V(101,102)/1e6 }
CA  102 GNDF 1e3
EB  1 1a VALUE = {V(102,GNDF)}


G2  GNDF 3 VSS GNDF {GPSRRN}
R2  3 4 {RPSRRN}
L2  4 GNDF {LPSRRN}

EC  301 GNDF 3 GNDF 1
GRC  301 302 VALUE = { V(301,302)/1e6 }
CC  302 GNDF 1e3
ED  3 3a VALUE = {V(302,GNDF)}


E1  VO VI VALUE = {V(1a,GNDF) + V(3a,GNDF)}
C3  VDD VSS 10P
.ENDS



.SUBCKT CMRR_OLD   VI  VO  VX GNDF PARAMS: CMRR = 130 FCMRR = 1.6K
.PARAM PI = 3.141592
.PARAM RCMRR = 1
.PARAM GCMRR = {PWR(10,-CMRR/20)/RCMRR}
.PARAM LCMRR = {RCMRR/(2*PI*FCMRR)}
G1  GNDF 1 VX GNDF {GCMRR}
R1  1 2 {RCMRR}
L1  2 GNDF {LCMRR}
E1  VI VO 1 GNDF 1
.ENDS

.SUBCKT CMRR_NEW   VI  VO VX GNDF PARAMS: CMRR = 130 FCMRR = 1.6K
.PARAM PI = 3.141592
.PARAM RCMRR = 1
.PARAM GCMRR = {PWR(10,-CMRR/20)/RCMRR}
.PARAM LCMRR = {RCMRR/(2*PI*FCMRR)}
G1  GNDF 1 VX GNDF {GCMRR}
R1  1 2 {RCMRR}
L1  2 GNDF {LCMRR}

EA  101 GNDF 1 GNDF 1
GRA  101 102 VALUE = {V(101,102)/1e6}
CA  102 GNDF 1e3
EB  1 1a VALUE = {V(102,GNDF)}

E1  VI VO 1a GNDF 1
.ENDS



.SUBCKT DLS 1 2 VDD_OLD VSS_OLD VDD_NEW VSS_NEW
E1 3 0 VALUE = { IF( V(1) < (V(VDD_OLD)+V(VSS_OLD))/2, V(VSS_NEW), V(VDD_NEW) ) }
R1 3 2 1
C1 2 0 1p
.ENDS


.SUBCKT DLSINV 1 2 VDD_OLD VSS_OLD VDD_NEW VSS_NEW
E1 3 0 VALUE = { IF( V(1) > (V(VDD_OLD)+V(VSS_OLD))/2, V(VSS_NEW), V(VDD_NEW) ) }
R1 3 2 1
C1 2 0 1p
.ENDS


.SUBCKT SWITCH_IDEAL A B C PARAMS:
+ Ron  = 100m
+ Roff = 0.1G







G1 A B VALUE = { V(A,B) * 1 / ( Roff/2 * TANH( 0 - ( 20*V(C) - 5 ) ) + Roff/2 + Ron )  }

R1 A 0 1000G
R2 B 0 1000G

.ENDS









.MODEL VINRANGE_DIDEAL         D N=1m
.MODEL RECOVERYCIRCUIT_DIDEAL  D N=1m 

.MODEL OUTPUTCIR_ISC_DIDEAL    D N=0.1m
.MODEL OUTPUTCIR_VOHVOL_DIDEAL D N=1m 
.MODEL DBASIC D

