* BEGIN MODEL TLC071
* PINOUT ORDER +IN -IN +V -V OUT
* PINOUT ORDER  3   2   7  4  6
.SUBCKT TLC071 3 2 7 4 6
* BEGIN NOTES
* FOR MORE ACCURATE CURRENTS
* IF LOOKING AT BIAS CURRENT
* USE GMIN-1E-13
* MODEL TEMPERATURE RANGE IS
* -40 C TO +125 C, NOT ALL
* PARAMETERS TRACK THOSE OF
* THE REAL PART VS TEMPERATURE
* END NOTES
* BEGIN FEATURES
* NULL PINS NOT MODELED
* OPEN LOOP GAIN AND PHASE
* INPUT VOLTAGE NOISE W 1/F
* INPUT CURRENT NOISE
* INPUT BIAS CURRENT
* INPUT BIAS CURRENT VS TEMPERATURE
* INPUT CAPACITANCE
* INPUT COMMON MODE VOLTAGE RANGE
* INPUT CLAMPS TO RAILS
* CMRR WITH FREQUENCY EFFECTS
* PSRR WITH FREQUENCY EFFECTS
* SLEW RATE
* QUIESCENT CURRENT
* QUIESCENT CURRENT VS SHUTDOWN
* HIGH CLOAD EFFECTS
* CLASS AB BIAS IN OUTPUT STAGE
* OUTPUT CURRENT THROUGH SUPPLIES
* OUTPUT CURRENT LIMITING
* OUTPUT CLAMPS TO RAILS
* OUTPUT SWING VS OUTPUT CURRENT
* END FEATURES
R3 9 10 2
R4 11 10 2
R12 12 7 100E-3
R13 4 13 100E-3
D5 14 7 DD
D6 4 14 DD
D7 15 0 DIN
D8 16 0 DIN
I8 0 15 0.1E-3
I9 0 16 0.1E-3
E2 17 0 4 0 1
E3 18 0 7 0 1
D9 19 0 DVN
D10 20 0 DVN
I10 0 19 0.1E-3
I11 0 20 0.1E-3
E4 21 2 19 20 0.155
G2 22 2 15 16 2.9E-7
R22 4 7 100E6
E5 23 0 18 0 1
E6 24 0 17 0 1
E7 25 0 26 0 1
R30 23 27 1E6
R31 24 28 1E6
R32 25 29 1E6
R33 0 27 100
R34 0 28 100
R35 0 29 100
E10 30 3 29 0 0.0017
R36 31 26 1E3
R37 26 32 1E3
C6 23 27 2E-12
C7 24 28 2E-12
C8 25 29 4E-12
E11 33 30 28 0 0.004
E12 22 33 27 0 0.004
E14 34 17 18 17 0.5
D11 35 18 DD
D12 17 35 DD
M4 36 37 9 9 PIN L=3U W=60U
M5 38 39 11 11 PIN L=3U W=60U
R46 17 36 3E3
R47 17 38 3E3
C13 36 38 0.1E-12
C14 22 0 11E-12
C15 21 0 11E-12
C16 14 0 1E-12
V18 40 37 0
M19 41 42 18 18 PIN L=6U W=500U
E17 32 0 22 0 1
E18 31 0 2 0 1
M23 42 42 18 18 PIN L=6U W=500U
V21 41 10 0
R59 14 43 15
R60 44 14 4.6
J1 45 22 45 JC
J2 45 21 45 JC
J3 21 46 21 JC
J4 22 46 22 JC
C21 22 21 3E-12
E20 47 34 38 36 1
R62 47 48 1E4
C23 48 34 0.03E-12
G11 7 4 49 0 1.7E-3
R75 33 22 1E9
R76 30 33 1E9
R77 3 30 1E9
R78 2 21 1E9
R79 34 48 1E9
R83 26 0 1E9
G14 42 17 49 0 275U
E48 50 48 49 0 30
E49 51 34 49 0 -30
V49 52 51 15
V50 53 50 -15
R127 50 0 1E12
R128 51 0 1E12
M41 34 53 48 54 PSW L=1.5U W=150U
M42 48 52 34 55 NSW L=1.5U
R129 54 0 1E12
R130 55 0 1E12
M43 56 8 17 17 NEN L=3U W=300U
M44 57 58 17 17 NEN L=3U W=3000U
R131 56 59 1E4
R132 57 59 1E6
V51 59 17 1
C26 8 0 0.1E-12
E50 49 0 61 17 1
V52 57 61 1.111E-6
R133 17 61 1E12
C32 59 56 210E-12
I21 7 4 125E-6
V74 18 45 0
V75 46 17 0.6
R195 0 49 1E9
R302 14 6 1
R314 42 18 1E9
Q21 12 62 43 QNO
Q22 13 63 44 QPO
Q23 17 64 65 QPO
R316 65 62 15
Q24 18 64 66 QNO
R317 63 66 4.6
R318 34 67 10
R319 34 64 10
C39 67 34 700E-12
C40 64 34 200E-12
E79 68 69 70 0 1
E80 69 71 70 0 1
E81 72 34 69 34 1
D37 73 18 DD
D38 17 74 DD
V78 71 74 0.74
V79 73 68 1.4
I25 0 75 1E-3
D39 75 0 DD
V80 70 75 -0.71465
C41 69 34 6.1P
D40 76 77 DD
D41 78 79 DD
R320 80 69 6.2K
R321 34 80 2E10
G19 67 34 69 34 0.1
G20 64 34 67 34 0.1
E83 76 72 70 0 1
E84 79 72 70 0 -1
R325 69 68 1E9
R326 71 69 1E9
R327 72 34 1E12
R328 0 76 1E12
R329 0 79 1E12
R330 0 70 1E12
G21 80 34 48 34 -0.15E-3
G22 18 62 49 0 0.17E-3
G23 63 17 49 0 0.17E-3
R341 22 40 45
R342 39 21 45
V121 80 77 -0.16
V122 80 78 0
M69 81 56 17 17 NEN L=3U W=300U
M70 58 81 17 17 NEN L=3U W=300U
R351 81 59 1E4
R352 58 59 1E4
C45 59 81 25E-12
G38 22 0 82 0 -3E-12
I50 22 0 -1.5E-12
I51 0 83 1E-3
D45 83 0 DD
V124 83 84 0.7
R353 0 84 1E6
E97 85 0 84 0 -571
R354 0 85 1E6
D46 86 82 DD
V125 85 86 80
G39 21 0 82 0 -3E-12
I52 21 0 -1.5E-12
R355 0 82 1E6
R356 82 86 1E11
VEN 8 17 2.0
.MODEL DD D
.MODEL DVN D KF=3E-14 IS=1E-16
.MODEL DIN D
.MODEL JC NJF
.MODEL QNL NPN
.MODEL QPL PNP
.MODEL QNO NPN BF=882
.MODEL QPO PNP BF=882
.MODEL POUT PMOS KP=200U VTO=-0.7
.MODEL NOUT NMOS KP=200U VTO=0.7
.MODEL PMON PMOS KP=195U VTO=-0.7
.MODEL NMON NMOS KP=195U VTO=0.7
.MODEL PIN PMOS KP=200U VTO=-0.7
.MODEL NIN NMOS KP=200U VTO=0.7
.MODEL NEN NMOS KP=200U VTO=0.5 IS=1E-18
.MODEL PEN PMOS KP=200U VTO=-0.7 IS=1E-18
.MODEL PSW PMOS KP=200U VTO=-7.5 IS=1E-18
.MODEL NSW NMOS KP=200U VTO=7.5 IS=1E-18
.ENDS
* END MODEL TLC071