*$ 
* TLC279_10V
*****************************************************************************
* (C) Copyright 2022 Texas Instruments Incorporated. All rights reserved.                                            
*****************************************************************************
** This model is designed as an aid for customers of Texas Instruments.
** TI and its licensors and suppliers make no warranties, either expressed
** or implied, with respect to this model, including the warranties of 
** merchantability or fitness for a particular purpose.  The model is
** provided solely on an "as is" basis.  The entire risk as to its quality
** and performance is with the customer
*****************************************************************************
*
* This model is subject to change without notice. Texas Instruments
* Incorporated is not responsible for updating this model.
*
*****************************************************************************
*
** Released by: Online Design Tools, Texas Instruments Inc.
* Part: TLC279_10V
* Date: 11JUL2022
* EVM Order Number: N/A 
* EVM Users Guide:  N/A 
* Datasheet: SLOS092D - SEPTEMBER 1987 - REVISED MARCH 2001
* Parts is a MicroSim product.
*
* Model Version: Final 1.1
*
*****************************************************************************
*
* Updates:
*
* Final 1.1
* 1. Updated PSpice Symbol.
* 2. Added .ENDS name as TLC279_10V.
*
* Final 1.0
* Release to Web.
* 
*****************************************************************************
* Model Usage Notes:
* 1. Model file is updated with latest header.
*****************************************************************************
* CONNECTIONS:       NON-INVERTING INPUT
*                    | INVERTING INPUT
*                    | | POSITIVE POWER SUPPLY
*                    | | | NEGATIVE POWER SUPPLY
*                    | | | | OUTPUT
*                    | | | | |
.SUBCKT TLC279_10V   1 2 3 4 5
*****************************************************************************
C1   11 12 4.693E-12
C2    6  7 20.00E-12
CPSR 85 86 79.6E-9
DCM+ 81 82 DX
DCM- 83 81 DX
DC    5 53 DX
DE   54  5 DX
DLP  90 91 DX
DLN  92 90 DX
DP    4  3 DX
ECMR 84 99 (2,99)  1
EGND 99  0 POLY(2) (3,0) (4,0) 0 .5 .5
EPSR 85 0 POLY(1) (3,4) -626E-6 62.6E-6
ENSE 89 2 POLY(1) (88,0) 250E-6  1
FB 7 99 POLY(6) VB VC VE VLP VLN VPSR 0 1.221E6 -3E6 3E6 3E6 -3E6 1.22E6
GA    6  0 11 12 175.9E-6
GCM 0  6 10 99 19.786E-9
GPSR 85 86 (85,86) 100E-6
GRD1 60 11 (60,11) 1.759E-4
GRD2 60 12 (60,12) 1.759E-4
HLIM 90  0 VLIM 1K
HCMR 80 1 POLY(2) VCM+ VCM- 0 1E2 1E2
IRP 3 4 858E-6
ISS   3 10 DC 92.00E-6
IIO 2 0 .1E-12
I1  88 0 1E-21
J1   11  89 10 JX
J2   12  80 10 JX
R2    6  9 100.0E3
RCM 84 81 1K
RN1 88 0 25E3
RO1   8  5 85
RO2   7 99 85
RSS  10 99 2.174E6
VAD  60 4 -.7
VCM+ 82 99 3.65
VCM- 83 99 -4.67
VB    9  0 DC 0
VC    3 53 DC 2.200
VE   54  4 DC .7
VLIM  7  8 DC 0
VLP  91  0 DC 20
VLN   0 92 DC 20
VPSR 0 86 DC 0
.MODEL DX D(IS=800.0E-18)
.MODEL JX PJF(IS=350.0E-15 BETA=672.8E-6 VTO=-.191 KF=1.65E-16)
.ENDS TLC279_10V
