* TLC27M4 OPERATIONAL AMPLIFIER "MACROMODEL" SUBCIRCUIT
* CREATED USING PARTS RELEASE 4.01 ON 08/09/90 AT 12:57
* REV (A)        SUPPLY VOLTAGE: 10V
* CONNECTIONS:   NON-INVERTING INPUT
*                | INVERTING INPUT
*                | | POSITIVE POWER SUPPLY
*                | | | NEGATIVE POWER SUPPLY
*                | | | | OUTPUT
*                | | | | |
.SUBCKT TLC27M4  1 2 3 4 5
*
  C1   11 12 12.044E-12
  C2    6  7 15.00E-12
  DC    5 53 DX
  DE   54  5 DX
  DLP  90 91 DX
  DLN  92 90 DX
  DP    4  3 DX
  EGND 99  0 POLY(2) (3,0) (4,0) 0 .5 .5
  FB    7 99 POLY(5) VB VC VE VLP VLN 0 38.14E6 -40E6 40E6 40E6 -40E6
  GA    6  0 11 12 84.83E-6
  GCM 0  6 10 99 1.803E-9
  ISS   3 10 DC 8.400E-6
  HLIM 90  0 VLIM 1K
  J1   11  2 10 JX
  J2   12  1 10 JX
  R2    6  9 100.0E3
  RD1 60 11 11.79E3
  RD2 60 12 11.79E3
  RO1   8  5 85
  RO2   7 99 85
  RP    3  4 69.93E3
  RSS  10 99 23.81E6
  VAD 60 4 -.4
  VB    9  0 DC 0
  VC 3 53 DC 1.9
  VE   54  4 DC .6
  VLIM  7  8 DC 0
  VLP  91  0 DC 20
  VLN   0 92 DC 20
.MODEL DX D(IS=800.0E-18)
.MODEL JX PJF(IS=50.00E-15 BETA=475E-6 VTO=.023)
.ENDS
