* TLC272 OPERATIONAL AMPLIFIER "MACROMODEL" SUBCIRCUIT
* CREATED USING PARTS RELEASE 4.03 ON 08/07/90 AT 15:22
* REV (B)        SUPPLY VOLTAGE: 10V
* CONNECTIONS:   NON-INVERTING INPUT
*                | INVERTING INPUT
*                | | POSITIVE POWER SUPPLY
*                | | | NEGATIVE POWER SUPPLY
*                | | | | OUTPUT
*                | | | | |
.SUBCKT TLC272  1 2 3 4 5
*
  C1   11 12 4.693E-12
  C2    6  7 20.00E-12
  DC    5 53 DX
  DE   54  5 DX
  DLP  90 91 DX
  DLN  92 90 DX
  DP    4  3 DX
  EGND 99  0 POLY(2) (3,0) (4,0) 0 .5 .5
  FB 7 99 POLY(5) VB VC VE VLP VLN 0 1.354E6 -3E6 3E6 3E6 -3E6
  GA    6  0 11 12 175.9E-6
  GCM 0  6 10 99 19.786E-9
  ISS   3 10 DC 92.00E-6
  HLIM 90  0 VLIM 1K
  J1   11  2 10 JX
  J2   12  1 10 JX
  R2    6  9 100.0E3
  RD1 60 11 5.684E3
  RD2 60 12 5.684E3
  RO1   8  5 75
  RO2   7 99 75
  RP 3  4 11.66E3
  RSS  10 99 2.174E6
  VAD  60 4 -.8
  VB    9  0 DC 0
  VC 3 53 DC 2.140
  VE   54  4 DC .64
  VLIM  7  8 DC 0
  VLP  91  0 DC 25
  VLN   0 92 DC 25
.MODEL DX D(IS=800.0E-18)
.MODEL JX PJF(IS=350.0E-15 BETA=672.8E-6 VTO=-.190)
.ENDS
