* TLC252C OPERATIONAL AMPLIFIER "MACROMODEL" SUBCIRCUIT
* CREATED USING PARTS RELEASE 4.03 ON 08/06/90 AT 13:32
* REV (B)        SUPPLY VOLTAGE: 10V
* CONNECTIONS:   NON-INVERTING INPUT
*                | INVERTING INPUT
*                | | POSITIVE POWER SUPPLY
*                | | | NEGATIVE POWER SUPPLY
*                | | | | OUTPUT
*                | | | | |
.SUBCKT TLC252C  1 2 3 4 5
*
  C1   11 12 2.591E-12
  C2    6  7 20.00E-12
  DC    5 53 DX
  DE   54  5 DX
  DLP  90 91 DX
  DLN  92 90 DX
  DP    4  3 DX
  EGND 99  0 POLY(2) (3,0) (4,0) 0 .5 .5
  FB 7 99 POLY(5) VB VC VE VLP VLN 0 1.635E6 -4E6 4E6 4E6 -4E6
  GA    6  0 11 12 163.4E-6
  GCM 0  6 10 99 13.04E-9
  ISS   3 10 DC 90.00E-6
  HLIM 90  0 VLIM 1K
  J1   11  2 10 JX
  J2   12  1 10 JX
  R2    6  9 100.0E3
  RD1 60 11 6.121E3
  RD2 60 12 6.121E3
  RO1 8  5 250
  RO2   7 99 75
  RP    3  4 10.00E3
  RSS  10 99 2.222E6
  VAD  60 4 -.8
  VB    9  0 DC 0
  VC 3 53 DC 1.35
  VE   54  4 DC 1.35
  VLIM  7  8 DC 0
  VLP  91  0 DC 15
  VLN   0 92 DC 15
.MODEL DX D(IS=800.0E-18)
.MODEL JX PJF(IS=500.0E-15 BETA=593.1E-6 VTO=-.2135)
.ENDS
