* TLC2264 OPERATIONAL AMPLIFIER "MACROMODEL" SUBCIRCUIT
* CREATED USING PARTS RELEASE 4.03 ON 07/19/93 AT 12:25
* REV (N/A)  SUPPLY VOLTAGE: +/-5V
* CONNECTIONS:   NON-INVERTING INPUT
*                | INVERTING INPUT
*                | | POSITIVE POWER SUPPLY
*                | | | NEGATIVE POWER SUPPLY
*                | | | | OUTPUT
*                | | | | |
.SUBCKT TLC2264  1 2 3 4 5
*
  C1   11 12 3.073E-12
  C2    6  7 15.00E-12
  DC    5 53 DX
  DE   54  5 DX
  DLP  90 91 DX
  DLN  92 90 DX
  DP    4  3 DX
  EGND 99  0 POLY(2) (3,0) (4,0) 0 .5 .5
  FB 7 99 POLY(5) VB VC VE VLP VLN 0 16.37E6 -20E6 20E6 20E6 -20E6
  GA    6  0 11 12 51.84E-6
  GCM 0  6 10 99 4.12E-9
  ISS   3 10 DC 8.250E-6
  HLIM 90  0 VLIM 1K
  J1   11  2 10 JX
  J2   12  1 10 JX
  R2    6  9 100.0E3
  RD1 60 11 19.29E3
  RD2 60 12 19.29E3
  RO1   8  5 110
  RO2   7 99 110
  RP    3  4 47.06E3
  RSS  10 99 24.24E6
  VAD  60 4 -.6
  VB    9  0 DC 0
  VC 3 53 DC .65
  VE   54  4 DC .65
  VLIM  7  8 DC 0
  VLP  91  0 DC .1
  VLN 0 92 DC 9.4
.MODEL DX D(IS=800.0E-18)
.MODEL JX PJF(IS=500.0E-15 BETA=651.4E-6 VTO=-.015)
.ENDS
