*$
* TLC6C5712-Q1
*****************************************************************************
* (C) Copyright 2015 Texas Instruments Incorporated. All rights reserved.
*****************************************************************************
** This model is designed as an aid for customers of Texas Instruments.
** TI and its licensors and suppliers make no warranties, either expressed
** or implied, with respect to this model, including the warranties of
** merchantability or fitness for a particular purpose. The model is
** provided solely on an "as is" basis. The entire risk as to its quality
** and performance is with the customer
*****************************************************************************
*
* Released by: WEBENCH Design Center, Texas Instruments Inc.
* Part: TLC6C5712_Q1
* Date: 5JUN2015
* Model Type: Transient
* Simulator: PSpice
* Simulator Version: 16.2
* EVM Order Number: TLC6C5712EVM
* EVM Users Guide: SLVUAE6
* Datasheet: SLVSCO9 –DECEMBER 2014
* Model Version: Final 1.00
*
*****************************************************************************
*
* 
* Final 1.0
* 
*
*
***************************************
.SUBCKT  TLC6C5712 VCC IREF Vsense ERR_Z TSD_ACTIVATED GND
+Short_0_1 Short_1_2 Short_2_3 Short_3_4 Short_4_5 Short_5_6 Short_6_7 Short_7_8 Short_8_9 Short_9_10 Short_10_11  

+OUT0 OUT1 OUT2 OUT3 OUT4 OUT5 OUT6 OUT7 OUT8 OUT9 OUT10 OUT11 PRE_TEMP_WARNING TEMP

+PWM_FAULT0 PWM_FAULT1 PWM_FAULT2 PWM_FAULT3 PWM_FAULT4 PWM_FAULT5

+Ch0_DAC Ch1_DAC Ch2_DAC Ch3_DAC Ch4_DAC Ch5_DAC Ch6_DAC Ch7_DAC Ch8_DAC Ch9_DAC Ch10_DAC Ch11_DAC

+FLT_Detected_Ch0 FLT_Detected_Ch1 FLT_Detected_Ch2 FLT_Detected_Ch3 FLT_Detected_Ch4 FLT_Detected_Ch5
+FLT_Detected_Ch6 FLT_Detected_Ch7 FLT_Detected_Ch8 FLT_Detected_Ch9 FLT_Detected_Ch10 FLT_Detected_Ch11

+PWMZ0 PWMZ1 PWMZ2 PWMZ3 PWMZ4 PWMZ5 



 
V_UTOP_V15         UTOP_WEAK_SUP_MASK 0 {WEAK_SUP_MASK}
X_UTOP_U9         UTOP_N16795575 UTOP_N16795644 UTOP_IREF_SHORT_OPEN
+  OR2_BASIC_GEN PARAMS: VDD=1 VSS=0 VTHRESH=500E-3
R_UTOP_R9         PWMZ3 VCC  150k TC=0,0 
V_UTOP_V8         UTOP_N17422862 0 15
X_UTOP_U21         SHORT_8_9 SHORT_9_10 SHORT_10_11 UTOP_N17405065
+  OR3_BASIC_GEN PARAMS: VDD=1 VSS=0 VTHRESH=500E-3
X_UTOP_U15         UTOP_WLS_FAULT_FLAG UTOP_RESET_STATUS UTOP_N17134463
+  N17134465 SRLATCHSHP_BASIC_GEN PARAMS: VDD=1 VSS=0 VTHRESH=0.5
V_UTOP_V10         UTOP_N17425502 0 165
R_UTOP_R6         PWMZ0 VCC  150k TC=0,0 
R_UTOP_R11         PWMZ5 VCC  150k TC=0,0 
X_UTOP_U18         SHORT_0_1 SHORT_1_2 SHORT_2_3 SHORT_3_4 UTOP_N17404004
+  OR4_BASIC_GEN PARAMS: VDD=1 VSS=0 VTHRESH=500E-3
R_UTOP_R8         PWMZ2 VCC  150k TC=0,0 
V_UTOP_V11         UTOP_N17134561 0 0.1
V_UTOP_V13         UTOP_N17134493 0 2.77
V_UTOP_V7         UTOP_VREF 0 2.7
X_UTOP_U20         SHORT_4_5 SHORT_5_6 SHORT_6_7 SHORT_7_8 UTOP_N17404534
+  OR4_BASIC_GEN PARAMS: VDD=1 VSS=0 VTHRESH=500E-3
X_UTOP_U5         UTOP_N17134510 UTOP_N17134493 UTOP_N17134528 UTOP_N17385010
+  2TO1MUX PARAMS:  VTHRESH=0.5
X_UTOP_U1         UTOP_VREF VCC UTOP_N16779242 UTOP_UVLO COMPHYS_BASIC_GEN
+  PARAMS: VDD=1 VSS=0 VTHRESH=0.5
V_UTOP_U_OUTPUT_U_Channel8_V2         UTOP_U_OUTPUT_U_Channel8_N16797304 0 
+ {Open_Mask0}
X_UTOP_U_OUTPUT_U_Channel8_U16         UTOP_IREF_SHORT_OPEN
+  UTOP_U_OUTPUT_U_Channel8_N16819919 INV_BASIC_GEN PARAMS: VDD=1 VSS=0
+  VTHRESH=500E-3
X_UTOP_U_OUTPUT_U_Channel8_U_Faults_U69        
+  UTOP_U_OUTPUT_U_Channel8_U_Faults_N65289
+  UTOP_U_OUTPUT_U_Channel8_U_Faults_N65293 UTOP_OPEN_REPORT_CH8 AND2_BASIC_GEN
+  PARAMS: VDD=1 VSS=0 VTHRESH=500E-3
V_UTOP_U_OUTPUT_U_Channel8_U_Faults_V9        
+  UTOP_U_OUTPUT_U_Channel8_U_Faults_N16724972 0 0.2
V_UTOP_U_OUTPUT_U_Channel8_U_Faults_V12        
+  UTOP_U_OUTPUT_U_Channel8_U_Faults_N58609 0 0.7
X_UTOP_U_OUTPUT_U_Channel8_U_Faults_U70        
+  UTOP_U_OUTPUT_U_Channel8_N16797304 UTOP_U_OUTPUT_U_Channel8_U_Faults_N65293
+  INV_BASIC_GEN PARAMS: VDD=1 VSS=0 VTHRESH=500E-3
X_UTOP_U_OUTPUT_U_Channel8_U_Faults_U1        
+  UTOP_U_OUTPUT_U_Channel8_U_Faults_N16724972 OUT8
+  UTOP_U_OUTPUT_U_Channel8_U_Faults_N58375 UTOP_OPEN_FAULT_CH8 COMPHYS_BASIC_GEN
+  PARAMS: VDD=1 VSS=0 VTHRESH=0.5
X_UTOP_U_OUTPUT_U_Channel8_U_Faults_U71         UTOP_SHORT_REPORT_CH8
+  UTOP_U_OUTPUT_U_Channel8_U_Faults_N16723389 UTOP_U_OUTPUT_TRIG_SHORT_FLAG8
+  OR2_BASIC_GEN PARAMS: VDD=1 VSS=0 VTHRESH=500E-3
E_UTOP_U_OUTPUT_U_Channel8_U_Faults_ABM1         UTOP_SG_FAULT_CH8 0 VALUE {
+  (if ( V(UTOP_U_OUTPUT_U_Channel8_U_Faults_N16721611) == 0, 1,0))    }
V_UTOP_U_OUTPUT_U_Channel8_U_Faults_V10        
+  UTOP_U_OUTPUT_U_Channel8_U_Faults_N58375 0 0.05
X_UTOP_U_OUTPUT_U_Channel8_U_Faults_U31         UTOP_SG_FAULT_CH8
+  UTOP_RESET_STATUS UTOP_U_OUTPUT_U_Channel8_U_Faults_N60833 N60789
+  SRLATCHRHP_BASIC_GEN PARAMS: VDD=1 VSS=0 VTHRESH=0.5
E_UTOP_U_OUTPUT_U_Channel8_U_Faults_E2        
+  UTOP_U_OUTPUT_U_Channel8_U_Faults_N16721611 0 OUT8 0 1
X_UTOP_U_OUTPUT_U_Channel8_U_Faults_U17        
+  UTOP_U_OUTPUT_U_Channel8_N16799639 UTOP_U_OUTPUT_U_Channel8_U_Faults_N65685
+  INV_BASIC_GEN PARAMS: VDD=1 VSS=0 VTHRESH=500E-3
X_UTOP_U_OUTPUT_U_Channel8_U_Faults_U67        
+  UTOP_U_OUTPUT_U_Channel8_U_Faults_N60833
+  UTOP_U_OUTPUT_U_Channel8_U_Faults_N60841
+  UTOP_U_OUTPUT_U_Channel8_U_Faults_N16723389 AND2_BASIC_GEN PARAMS: VDD=1 VSS=0
+  VTHRESH=500E-3
X_UTOP_U_OUTPUT_U_Channel8_U_Faults_U16        
+  UTOP_U_OUTPUT_U_Channel8_U_Faults_N58147
+  UTOP_U_OUTPUT_U_Channel8_U_Faults_N65685 UTOP_SHORT_REPORT_CH8 AND2_BASIC_GEN
+  PARAMS: VDD=1 VSS=0 VTHRESH=500E-3
X_UTOP_U_OUTPUT_U_Channel8_U_Faults_U3        
+  UTOP_U_OUTPUT_U_Channel8_U_Faults_N58609
+  UTOP_U_OUTPUT_U_Channel8_U_Faults_N58559
+  UTOP_U_OUTPUT_U_Channel8_U_Faults_N58473 UTOP_SHORT_FAULT_CH8
+  COMPHYS_BASIC_GEN PARAMS: VDD=1 VSS=0 VTHRESH=0.5
X_UTOP_U_OUTPUT_U_Channel8_U_Faults_U15         UTOP_SHORT_FAULT_CH8
+  UTOP_RESET_STATUS UTOP_U_OUTPUT_U_Channel8_U_Faults_N58147 N58293
+  SRLATCHSHP_BASIC_GEN PARAMS: VDD=1 VSS=0 VTHRESH=0.5
V_UTOP_U_OUTPUT_U_Channel8_U_Faults_V11        
+  UTOP_U_OUTPUT_U_Channel8_U_Faults_N58473 0 0.1
X_UTOP_U_OUTPUT_U_Channel8_U_Faults_U68        
+  UTOP_U_OUTPUT_U_Channel8_N16797559 UTOP_U_OUTPUT_U_Channel8_U_Faults_N60841
+  INV_BASIC_GEN PARAMS: VDD=1 VSS=0 VTHRESH=500E-3
X_UTOP_U_OUTPUT_U_Channel8_U_Faults_U32         UTOP_OPEN_FAULT_CH8
+  UTOP_RESET_STATUS UTOP_U_OUTPUT_U_Channel8_U_Faults_N65289 N65249
+  SRLATCHRHP_BASIC_GEN PARAMS: VDD=1 VSS=0 VTHRESH=0.5
E_UTOP_U_OUTPUT_U_Channel8_U_Faults_E1        
+  UTOP_U_OUTPUT_U_Channel8_U_Faults_N58559 0 VSENSE OUT8 1
X_UTOP_U_OUTPUT_U_Channel8_S5    UTOP_U_OUTPUT_U_Channel8_N16819919 0
+  UTOP_U_OUTPUT_U_Channel8_N16819952 UTOP_U_OUTPUT_U_Channel8_NV1
+  Channel_UTOP_U_OUTPUT_U_Channel8_S5 
X_UTOP_U_OUTPUT_U_Channel8_S4    UTOP_IREF_SHORT_OPEN 0
+  UTOP_U_OUTPUT_U_Channel8_N16819952 UTOP_U_OUTPUT_U_Channel8_NV2
+  Channel_UTOP_U_OUTPUT_U_Channel8_S4 
X_UTOP_U_OUTPUT_U_Channel8_U12         UTOP_U_OUTPUT_U_Channel8_N36808
+  UTOP_U_OUTPUT_U_Channel8_N16779473 UTOP_U_OUTPUT_U_Channel8_N16829689
+  AND2_BASIC_GEN PARAMS: VDD=1 VSS=0 VTHRESH=500E-3
X_UTOP_U_OUTPUT_U_Channel8_U65         0 UTOP_U_OUTPUT_U_Channel8_NV2 d_d1
+  PARAMS:
X_UTOP_U_OUTPUT_U_Channel8_U15         UTOP_U_OUTPUT_U_Channel8_N16829689
+  UTOP_U_OUTPUT_U_Channel8_N16829050 UTOP_U_OUTPUT_U_Channel8_N16820033
+  AND2_BASIC_GEN PARAMS: VDD=1 VSS=0 VTHRESH=500E-3
X_UTOP_U_OUTPUT_U_Channel8_U9         PWMZ0 PWMZ1 PWMZ2 PWMZ3 PWMZ4 PWMZ5
+  UTOP_U_OUTPUT_U_Channel8_N36808 UTOP_U_OUTPUT_PWM_MAP_CH8 PWM_MUX
X_UTOP_U_OUTPUT_U_Channel8_U66         0 UTOP_U_OUTPUT_U_Channel8_NV1 d_d1
+  PARAMS:
X_UTOP_U_OUTPUT_U_Channel8_U13         UTOP_U_OUTPUT_CH_ON_MASK8
+  UTOP_U_OUTPUT_U_Channel8_N16779473 INV_BASIC_GEN PARAMS: VDD=1 VSS=0
+  VTHRESH=500E-3
V_UTOP_U_OUTPUT_U_Channel8_V1         UTOP_U_OUTPUT_U_Channel8_N16797559 0 
+ {SG_Mask0}
X_UTOP_U_OUTPUT_U_Channel8_U10         CH8_DAC UTOP_DAC_FS
+  UTOP_U_OUTPUT_U_Channel8_N16820005 Iout_adjust
V_UTOP_U_OUTPUT_U_Channel8_V3         UTOP_U_OUTPUT_U_Channel8_N16799639 0 
+ {Short_Mask0}
I_UTOP_U_OUTPUT_U_Channel8_I3         UTOP_U_OUTPUT_U_Channel8_NV2 0 DC 10m  
X_UTOP_U_OUTPUT_U_Channel8_U11         UTOP_U_OUTPUT_N211002
+  UTOP_U_OUTPUT_U_Channel8_N16778792 INV_BASIC_GEN PARAMS: VDD=1 VSS=0
+  VTHRESH=500E-3
X_UTOP_U_OUTPUT_U_Channel8_S7    UTOP_U_OUTPUT_U_Channel8_OFFTIME_PATH 0
+  UTOP_U_OUTPUT_U_Channel8_N16826282 UTOP_U_OUTPUT_U_Channel8_N16826305
+  Channel_UTOP_U_OUTPUT_U_Channel8_S7 
X_UTOP_U_OUTPUT_U_Channel8_U17         TSD_ACTIVATED
+  UTOP_U_OUTPUT_U_Channel8_N16829050 INV_BASIC_GEN PARAMS: VDD=1 VSS=0
+  VTHRESH=500E-3
G_UTOP_U_OUTPUT_U_Channel8_G2         UTOP_U_OUTPUT_U_Channel8_NV1 0
+  UTOP_U_OUTPUT_U_Channel8_N16820005 0 1
X_UTOP_U_OUTPUT_U_Channel8_U14         UTOP_U_OUTPUT_U_Channel8_N16778792
+  UTOP_U_OUTPUT_CH_ON_MASK8 UTOP_U_OUTPUT_CH_ON_MASK8
+  UTOP_U_OUTPUT_U_Channel8_OFFTIME_PATH AND3_BASIC_GEN PARAMS: VDD=1 VSS=0
+  VTHRESH=500E-3
X_UTOP_U_OUTPUT_U_Channel8_U4         UTOP_U_OUTPUT_U_Channel8_N16826305 OUT8
+  d_d1 PARAMS:
X_UTOP_U_OUTPUT_U_Channel8_S3    UTOP_U_OUTPUT_U_Channel8_N16820033 0 OUT8
+  UTOP_U_OUTPUT_U_Channel8_N16819952 Channel_UTOP_U_OUTPUT_U_Channel8_S3 
I_UTOP_U_OUTPUT_U_Channel8_I4         OUT8 UTOP_U_OUTPUT_U_Channel8_N16826305
+  DC 20u  
V_UTOP_U_OUTPUT_U_Channel8_V20         UTOP_U_OUTPUT_U_Channel8_N16826282 0 3
V_UTOP_U_OUTPUT_V18         UTOP_U_OUTPUT_PWM_MAP_CH2 0 {PWM_MAP_CH2}
V_UTOP_U_OUTPUT_U_Channel_V2         UTOP_U_OUTPUT_U_Channel_N16797304 0 
+ {Open_Mask0}
X_UTOP_U_OUTPUT_U_Channel_U16         UTOP_IREF_SHORT_OPEN
+  UTOP_U_OUTPUT_U_Channel_N16819919 INV_BASIC_GEN PARAMS: VDD=1 VSS=0
+  VTHRESH=500E-3
X_UTOP_U_OUTPUT_U_Channel_U_Faults_U69        
+  UTOP_U_OUTPUT_U_Channel_U_Faults_N65289
+  UTOP_U_OUTPUT_U_Channel_U_Faults_N65293 UTOP_OPEN_REPORT_CH0 AND2_BASIC_GEN
+  PARAMS: VDD=1 VSS=0 VTHRESH=500E-3
V_UTOP_U_OUTPUT_U_Channel_U_Faults_V9        
+  UTOP_U_OUTPUT_U_Channel_U_Faults_N16724972 0 0.2
V_UTOP_U_OUTPUT_U_Channel_U_Faults_V12        
+  UTOP_U_OUTPUT_U_Channel_U_Faults_N58609 0 0.7
X_UTOP_U_OUTPUT_U_Channel_U_Faults_U70        
+  UTOP_U_OUTPUT_U_Channel_N16797304 UTOP_U_OUTPUT_U_Channel_U_Faults_N65293
+  INV_BASIC_GEN PARAMS: VDD=1 VSS=0 VTHRESH=500E-3
X_UTOP_U_OUTPUT_U_Channel_U_Faults_U1        
+  UTOP_U_OUTPUT_U_Channel_U_Faults_N16724972 OUT0
+  UTOP_U_OUTPUT_U_Channel_U_Faults_N58375 UTOP_OPEN_FAULT_CH0 COMPHYS_BASIC_GEN
+  PARAMS: VDD=1 VSS=0 VTHRESH=0.5
X_UTOP_U_OUTPUT_U_Channel_U_Faults_U71         UTOP_SHORT_REPORT_CH0
+  UTOP_U_OUTPUT_U_Channel_U_Faults_N16723389 UTOP_U_OUTPUT_TRIG_SHORT_FLAG0
+  OR2_BASIC_GEN PARAMS: VDD=1 VSS=0 VTHRESH=500E-3
E_UTOP_U_OUTPUT_U_Channel_U_Faults_ABM1         UTOP_SG_FAULT_CH0 0 VALUE { (if
+  ( V(UTOP_U_OUTPUT_U_Channel_U_Faults_N16721611) == 0, 1,0))    }
V_UTOP_U_OUTPUT_U_Channel_U_Faults_V10        
+  UTOP_U_OUTPUT_U_Channel_U_Faults_N58375 0 0.05
X_UTOP_U_OUTPUT_U_Channel_U_Faults_U31         UTOP_SG_FAULT_CH0
+  UTOP_RESET_STATUS UTOP_U_OUTPUT_U_Channel_U_Faults_N60833 N60789
+  SRLATCHRHP_BASIC_GEN PARAMS: VDD=1 VSS=0 VTHRESH=0.5
E_UTOP_U_OUTPUT_U_Channel_U_Faults_E2        
+  UTOP_U_OUTPUT_U_Channel_U_Faults_N16721611 0 OUT0 0 1
X_UTOP_U_OUTPUT_U_Channel_U_Faults_U17        
+  UTOP_U_OUTPUT_U_Channel_N16799639 UTOP_U_OUTPUT_U_Channel_U_Faults_N65685
+  INV_BASIC_GEN PARAMS: VDD=1 VSS=0 VTHRESH=500E-3
X_UTOP_U_OUTPUT_U_Channel_U_Faults_U67        
+  UTOP_U_OUTPUT_U_Channel_U_Faults_N60833
+  UTOP_U_OUTPUT_U_Channel_U_Faults_N60841
+  UTOP_U_OUTPUT_U_Channel_U_Faults_N16723389 AND2_BASIC_GEN PARAMS: VDD=1 VSS=0
+  VTHRESH=500E-3
X_UTOP_U_OUTPUT_U_Channel_U_Faults_U16        
+  UTOP_U_OUTPUT_U_Channel_U_Faults_N58147
+  UTOP_U_OUTPUT_U_Channel_U_Faults_N65685 UTOP_SHORT_REPORT_CH0 AND2_BASIC_GEN
+  PARAMS: VDD=1 VSS=0 VTHRESH=500E-3
X_UTOP_U_OUTPUT_U_Channel_U_Faults_U3        
+  UTOP_U_OUTPUT_U_Channel_U_Faults_N58609
+  UTOP_U_OUTPUT_U_Channel_U_Faults_N58559
+  UTOP_U_OUTPUT_U_Channel_U_Faults_N58473 UTOP_SHORT_FAULT_CH0 COMPHYS_BASIC_GEN
+  PARAMS: VDD=1 VSS=0 VTHRESH=0.5
X_UTOP_U_OUTPUT_U_Channel_U_Faults_U15         UTOP_SHORT_FAULT_CH0
+  UTOP_RESET_STATUS UTOP_U_OUTPUT_U_Channel_U_Faults_N58147 N58293
+  SRLATCHSHP_BASIC_GEN PARAMS: VDD=1 VSS=0 VTHRESH=0.5
V_UTOP_U_OUTPUT_U_Channel_U_Faults_V11        
+  UTOP_U_OUTPUT_U_Channel_U_Faults_N58473 0 0.1
X_UTOP_U_OUTPUT_U_Channel_U_Faults_U68        
+  UTOP_U_OUTPUT_U_Channel_N16797559 UTOP_U_OUTPUT_U_Channel_U_Faults_N60841
+  INV_BASIC_GEN PARAMS: VDD=1 VSS=0 VTHRESH=500E-3
X_UTOP_U_OUTPUT_U_Channel_U_Faults_U32         UTOP_OPEN_FAULT_CH0
+  UTOP_RESET_STATUS UTOP_U_OUTPUT_U_Channel_U_Faults_N65289 N65249
+  SRLATCHRHP_BASIC_GEN PARAMS: VDD=1 VSS=0 VTHRESH=0.5
E_UTOP_U_OUTPUT_U_Channel_U_Faults_E1        
+  UTOP_U_OUTPUT_U_Channel_U_Faults_N58559 0 VSENSE OUT0 1
X_UTOP_U_OUTPUT_U_Channel_S5    UTOP_U_OUTPUT_U_Channel_N16819919 0
+  UTOP_U_OUTPUT_U_Channel_N16819952 UTOP_U_OUTPUT_U_Channel_NV1
+  Channel_UTOP_U_OUTPUT_U_Channel_S5 
X_UTOP_U_OUTPUT_U_Channel_S4    UTOP_IREF_SHORT_OPEN 0
+  UTOP_U_OUTPUT_U_Channel_N16819952 UTOP_U_OUTPUT_U_Channel_NV2
+  Channel_UTOP_U_OUTPUT_U_Channel_S4 
X_UTOP_U_OUTPUT_U_Channel_U12         UTOP_U_OUTPUT_U_Channel_N36808
+  UTOP_U_OUTPUT_U_Channel_N16779473 UTOP_U_OUTPUT_U_Channel_N16829689
+  AND2_BASIC_GEN PARAMS: VDD=1 VSS=0 VTHRESH=500E-3
X_UTOP_U_OUTPUT_U_Channel_U65         0 UTOP_U_OUTPUT_U_Channel_NV2 d_d1
+  PARAMS:
X_UTOP_U_OUTPUT_U_Channel_U15         UTOP_U_OUTPUT_U_Channel_N16829689
+  UTOP_U_OUTPUT_U_Channel_N16829050 UTOP_U_OUTPUT_U_Channel_N16820033
+  AND2_BASIC_GEN PARAMS: VDD=1 VSS=0 VTHRESH=500E-3
X_UTOP_U_OUTPUT_U_Channel_U9         PWMZ0 PWMZ1 PWMZ2 PWMZ3 PWMZ4 PWMZ5
+  UTOP_U_OUTPUT_U_Channel_N36808 UTOP_U_OUTPUT_PWM_MAP_CH0 PWM_MUX
X_UTOP_U_OUTPUT_U_Channel_U66         0 UTOP_U_OUTPUT_U_Channel_NV1 d_d1
+  PARAMS:
X_UTOP_U_OUTPUT_U_Channel_U13         UTOP_U_OUTPUT_CH_ON_MASK0
+  UTOP_U_OUTPUT_U_Channel_N16779473 INV_BASIC_GEN PARAMS: VDD=1 VSS=0
+  VTHRESH=500E-3
V_UTOP_U_OUTPUT_U_Channel_V1         UTOP_U_OUTPUT_U_Channel_N16797559 0 
+ {SG_Mask0}
X_UTOP_U_OUTPUT_U_Channel_U10         CH0_DAC UTOP_DAC_FS
+  UTOP_U_OUTPUT_U_Channel_N16820005 Iout_adjust
V_UTOP_U_OUTPUT_U_Channel_V3         UTOP_U_OUTPUT_U_Channel_N16799639 0 
+ {Short_Mask0}
I_UTOP_U_OUTPUT_U_Channel_I3         UTOP_U_OUTPUT_U_Channel_NV2 0 DC 10m  
X_UTOP_U_OUTPUT_U_Channel_U11         UTOP_U_OUTPUT_N200268
+  UTOP_U_OUTPUT_U_Channel_N16778792 INV_BASIC_GEN PARAMS: VDD=1 VSS=0
+  VTHRESH=500E-3
X_UTOP_U_OUTPUT_U_Channel_S7    UTOP_U_OUTPUT_U_Channel_OFFTIME_PATH 0
+  UTOP_U_OUTPUT_U_Channel_N16826282 UTOP_U_OUTPUT_U_Channel_N16826305
+  Channel_UTOP_U_OUTPUT_U_Channel_S7 
X_UTOP_U_OUTPUT_U_Channel_U17         TSD_ACTIVATED
+  UTOP_U_OUTPUT_U_Channel_N16829050 INV_BASIC_GEN PARAMS: VDD=1 VSS=0
+  VTHRESH=500E-3
G_UTOP_U_OUTPUT_U_Channel_G2         UTOP_U_OUTPUT_U_Channel_NV1 0
+  UTOP_U_OUTPUT_U_Channel_N16820005 0 1
X_UTOP_U_OUTPUT_U_Channel_U14         UTOP_U_OUTPUT_U_Channel_N16778792
+  UTOP_U_OUTPUT_CH_ON_MASK0 UTOP_U_OUTPUT_CH_ON_MASK0
+  UTOP_U_OUTPUT_U_Channel_OFFTIME_PATH AND3_BASIC_GEN PARAMS: VDD=1 VSS=0
+  VTHRESH=500E-3
X_UTOP_U_OUTPUT_U_Channel_U4         UTOP_U_OUTPUT_U_Channel_N16826305 OUT0
+  d_d1 PARAMS:
X_UTOP_U_OUTPUT_U_Channel_S3    UTOP_U_OUTPUT_U_Channel_N16820033 0 OUT0
+  UTOP_U_OUTPUT_U_Channel_N16819952 Channel_UTOP_U_OUTPUT_U_Channel_S3 
I_UTOP_U_OUTPUT_U_Channel_I4         OUT0 UTOP_U_OUTPUT_U_Channel_N16826305 DC
+  20u  
V_UTOP_U_OUTPUT_U_Channel_V20         UTOP_U_OUTPUT_U_Channel_N16826282 0 3
V_UTOP_U_OUTPUT_V8         UTOP_U_OUTPUT_N210640 0 {DIS_PULL_UP_CH7}
V_UTOP_U_OUTPUT_V10         UTOP_U_OUTPUT_N211369 0 {DIS_PULL_UP_CH9}
V_UTOP_U_OUTPUT_V19         UTOP_U_OUTPUT_PWM_MAP_CH3 0 {PWM_MAP_CH3}
V_UTOP_U_OUTPUT_V6         UTOP_U_OUTPUT_N209931 0 {DIS_PULL_UP_CH5}
V_UTOP_U_OUTPUT_U_Channel5_V2         UTOP_U_OUTPUT_U_Channel5_N16797304 0 
+ {Open_Mask0}
X_UTOP_U_OUTPUT_U_Channel5_U16         UTOP_IREF_SHORT_OPEN
+  UTOP_U_OUTPUT_U_Channel5_N16819919 INV_BASIC_GEN PARAMS: VDD=1 VSS=0
+  VTHRESH=500E-3
X_UTOP_U_OUTPUT_U_Channel5_U_Faults_U69        
+  UTOP_U_OUTPUT_U_Channel5_U_Faults_N65289
+  UTOP_U_OUTPUT_U_Channel5_U_Faults_N65293 UTOP_OPEN_REPORT_CH5 AND2_BASIC_GEN
+  PARAMS: VDD=1 VSS=0 VTHRESH=500E-3
V_UTOP_U_OUTPUT_U_Channel5_U_Faults_V9        
+  UTOP_U_OUTPUT_U_Channel5_U_Faults_N16724972 0 0.2
V_UTOP_U_OUTPUT_U_Channel5_U_Faults_V12        
+  UTOP_U_OUTPUT_U_Channel5_U_Faults_N58609 0 0.7
X_UTOP_U_OUTPUT_U_Channel5_U_Faults_U70        
+  UTOP_U_OUTPUT_U_Channel5_N16797304 UTOP_U_OUTPUT_U_Channel5_U_Faults_N65293
+  INV_BASIC_GEN PARAMS: VDD=1 VSS=0 VTHRESH=500E-3
X_UTOP_U_OUTPUT_U_Channel5_U_Faults_U1        
+  UTOP_U_OUTPUT_U_Channel5_U_Faults_N16724972 OUT5
+  UTOP_U_OUTPUT_U_Channel5_U_Faults_N58375 UTOP_OPEN_FAULT_CH5 COMPHYS_BASIC_GEN
+  PARAMS: VDD=1 VSS=0 VTHRESH=0.5
X_UTOP_U_OUTPUT_U_Channel5_U_Faults_U71         UTOP_SHORT_REPORT_CH5
+  UTOP_U_OUTPUT_U_Channel5_U_Faults_N16723389 UTOP_U_OUTPUT_TRIG_SHORT_FLAG5
+  OR2_BASIC_GEN PARAMS: VDD=1 VSS=0 VTHRESH=500E-3
E_UTOP_U_OUTPUT_U_Channel5_U_Faults_ABM1         UTOP_SG_FAULT_CH5 0 VALUE {
+  (if ( V(UTOP_U_OUTPUT_U_Channel5_U_Faults_N16721611) == 0, 1,0))    }
V_UTOP_U_OUTPUT_U_Channel5_U_Faults_V10        
+  UTOP_U_OUTPUT_U_Channel5_U_Faults_N58375 0 0.05
X_UTOP_U_OUTPUT_U_Channel5_U_Faults_U31         UTOP_SG_FAULT_CH5
+  UTOP_RESET_STATUS UTOP_U_OUTPUT_U_Channel5_U_Faults_N60833 N60789
+  SRLATCHRHP_BASIC_GEN PARAMS: VDD=1 VSS=0 VTHRESH=0.5
E_UTOP_U_OUTPUT_U_Channel5_U_Faults_E2        
+  UTOP_U_OUTPUT_U_Channel5_U_Faults_N16721611 0 OUT5 0 1
X_UTOP_U_OUTPUT_U_Channel5_U_Faults_U17        
+  UTOP_U_OUTPUT_U_Channel5_N16799639 UTOP_U_OUTPUT_U_Channel5_U_Faults_N65685
+  INV_BASIC_GEN PARAMS: VDD=1 VSS=0 VTHRESH=500E-3
X_UTOP_U_OUTPUT_U_Channel5_U_Faults_U67        
+  UTOP_U_OUTPUT_U_Channel5_U_Faults_N60833
+  UTOP_U_OUTPUT_U_Channel5_U_Faults_N60841
+  UTOP_U_OUTPUT_U_Channel5_U_Faults_N16723389 AND2_BASIC_GEN PARAMS: VDD=1 VSS=0
+  VTHRESH=500E-3
X_UTOP_U_OUTPUT_U_Channel5_U_Faults_U16        
+  UTOP_U_OUTPUT_U_Channel5_U_Faults_N58147
+  UTOP_U_OUTPUT_U_Channel5_U_Faults_N65685 UTOP_SHORT_REPORT_CH5 AND2_BASIC_GEN
+  PARAMS: VDD=1 VSS=0 VTHRESH=500E-3
X_UTOP_U_OUTPUT_U_Channel5_U_Faults_U3        
+  UTOP_U_OUTPUT_U_Channel5_U_Faults_N58609
+  UTOP_U_OUTPUT_U_Channel5_U_Faults_N58559
+  UTOP_U_OUTPUT_U_Channel5_U_Faults_N58473 UTOP_SHORT_FAULT_CH5
+  COMPHYS_BASIC_GEN PARAMS: VDD=1 VSS=0 VTHRESH=0.5
X_UTOP_U_OUTPUT_U_Channel5_U_Faults_U15         UTOP_SHORT_FAULT_CH5
+  UTOP_RESET_STATUS UTOP_U_OUTPUT_U_Channel5_U_Faults_N58147 N58293
+  SRLATCHSHP_BASIC_GEN PARAMS: VDD=1 VSS=0 VTHRESH=0.5
V_UTOP_U_OUTPUT_U_Channel5_U_Faults_V11        
+  UTOP_U_OUTPUT_U_Channel5_U_Faults_N58473 0 0.1
X_UTOP_U_OUTPUT_U_Channel5_U_Faults_U68        
+  UTOP_U_OUTPUT_U_Channel5_N16797559 UTOP_U_OUTPUT_U_Channel5_U_Faults_N60841
+  INV_BASIC_GEN PARAMS: VDD=1 VSS=0 VTHRESH=500E-3
X_UTOP_U_OUTPUT_U_Channel5_U_Faults_U32         UTOP_OPEN_FAULT_CH5
+  UTOP_RESET_STATUS UTOP_U_OUTPUT_U_Channel5_U_Faults_N65289 N65249
+  SRLATCHRHP_BASIC_GEN PARAMS: VDD=1 VSS=0 VTHRESH=0.5
E_UTOP_U_OUTPUT_U_Channel5_U_Faults_E1        
+  UTOP_U_OUTPUT_U_Channel5_U_Faults_N58559 0 VSENSE OUT5 1
X_UTOP_U_OUTPUT_U_Channel5_S5    UTOP_U_OUTPUT_U_Channel5_N16819919 0
+  UTOP_U_OUTPUT_U_Channel5_N16819952 UTOP_U_OUTPUT_U_Channel5_NV1
+  Channel_UTOP_U_OUTPUT_U_Channel5_S5 
X_UTOP_U_OUTPUT_U_Channel5_S4    UTOP_IREF_SHORT_OPEN 0
+  UTOP_U_OUTPUT_U_Channel5_N16819952 UTOP_U_OUTPUT_U_Channel5_NV2
+  Channel_UTOP_U_OUTPUT_U_Channel5_S4 
X_UTOP_U_OUTPUT_U_Channel5_U12         UTOP_U_OUTPUT_U_Channel5_N36808
+  UTOP_U_OUTPUT_U_Channel5_N16779473 UTOP_U_OUTPUT_U_Channel5_N16829689
+  AND2_BASIC_GEN PARAMS: VDD=1 VSS=0 VTHRESH=500E-3
X_UTOP_U_OUTPUT_U_Channel5_U65         0 UTOP_U_OUTPUT_U_Channel5_NV2 d_d1
+  PARAMS:
X_UTOP_U_OUTPUT_U_Channel5_U15         UTOP_U_OUTPUT_U_Channel5_N16829689
+  UTOP_U_OUTPUT_U_Channel5_N16829050 UTOP_U_OUTPUT_U_Channel5_N16820033
+  AND2_BASIC_GEN PARAMS: VDD=1 VSS=0 VTHRESH=500E-3
X_UTOP_U_OUTPUT_U_Channel5_U9         PWMZ0 PWMZ1 PWMZ2 PWMZ3 PWMZ4 PWMZ5
+  UTOP_U_OUTPUT_U_Channel5_N36808 UTOP_U_OUTPUT_PWM_MAP_CH5 PWM_MUX
X_UTOP_U_OUTPUT_U_Channel5_U66         0 UTOP_U_OUTPUT_U_Channel5_NV1 d_d1
+  PARAMS:
X_UTOP_U_OUTPUT_U_Channel5_U13         UTOP_U_OUTPUT_CH_ON_MASK5
+  UTOP_U_OUTPUT_U_Channel5_N16779473 INV_BASIC_GEN PARAMS: VDD=1 VSS=0
+  VTHRESH=500E-3
V_UTOP_U_OUTPUT_U_Channel5_V1         UTOP_U_OUTPUT_U_Channel5_N16797559 0 
+ {SG_Mask0}
X_UTOP_U_OUTPUT_U_Channel5_U10         CH5_DAC UTOP_DAC_FS
+  UTOP_U_OUTPUT_U_Channel5_N16820005 Iout_adjust
V_UTOP_U_OUTPUT_U_Channel5_V3         UTOP_U_OUTPUT_U_Channel5_N16799639 0 
+ {Short_Mask0}
I_UTOP_U_OUTPUT_U_Channel5_I3         UTOP_U_OUTPUT_U_Channel5_NV2 0 DC 10m  
X_UTOP_U_OUTPUT_U_Channel5_U11         UTOP_U_OUTPUT_N209931
+  UTOP_U_OUTPUT_U_Channel5_N16778792 INV_BASIC_GEN PARAMS: VDD=1 VSS=0
+  VTHRESH=500E-3
X_UTOP_U_OUTPUT_U_Channel5_S7    UTOP_U_OUTPUT_U_Channel5_OFFTIME_PATH 0
+  UTOP_U_OUTPUT_U_Channel5_N16826282 UTOP_U_OUTPUT_U_Channel5_N16826305
+  Channel_UTOP_U_OUTPUT_U_Channel5_S7 
X_UTOP_U_OUTPUT_U_Channel5_U17         TSD_ACTIVATED
+  UTOP_U_OUTPUT_U_Channel5_N16829050 INV_BASIC_GEN PARAMS: VDD=1 VSS=0
+  VTHRESH=500E-3
G_UTOP_U_OUTPUT_U_Channel5_G2         UTOP_U_OUTPUT_U_Channel5_NV1 0
+  UTOP_U_OUTPUT_U_Channel5_N16820005 0 1
X_UTOP_U_OUTPUT_U_Channel5_U14         UTOP_U_OUTPUT_U_Channel5_N16778792
+  UTOP_U_OUTPUT_CH_ON_MASK5 UTOP_U_OUTPUT_CH_ON_MASK5
+  UTOP_U_OUTPUT_U_Channel5_OFFTIME_PATH AND3_BASIC_GEN PARAMS: VDD=1 VSS=0
+  VTHRESH=500E-3
X_UTOP_U_OUTPUT_U_Channel5_U4         UTOP_U_OUTPUT_U_Channel5_N16826305 OUT5
+  d_d1 PARAMS:
X_UTOP_U_OUTPUT_U_Channel5_S3    UTOP_U_OUTPUT_U_Channel5_N16820033 0 OUT5
+  UTOP_U_OUTPUT_U_Channel5_N16819952 Channel_UTOP_U_OUTPUT_U_Channel5_S3 
I_UTOP_U_OUTPUT_U_Channel5_I4         OUT5 UTOP_U_OUTPUT_U_Channel5_N16826305
+  DC 20u  
V_UTOP_U_OUTPUT_U_Channel5_V20         UTOP_U_OUTPUT_U_Channel5_N16826282 0 3
V_UTOP_U_OUTPUT_V12         UTOP_U_OUTPUT_N212118 0 {DIS_PULL_UP_CH11}
V_UTOP_U_OUTPUT_V23         UTOP_U_OUTPUT_PWM_MAP_CH0 0 {PWM_MAP_CH0}
V_UTOP_U_OUTPUT_V4         UTOP_U_OUTPUT_N209242 0 {DIS_PULL_UP_CH3}
V_UTOP_U_OUTPUT_V16         UTOP_U_OUTPUT_PWM_MAP_CH8 0 {PWM_MAP_CH8}
X_UTOP_U_OUTPUT_U1         UTOP_U_OUTPUT_TRIG_SHORT_FLAG0
+  UTOP_U_OUTPUT_TRIG_SHORT_FLAG1 UTOP_U_OUTPUT_TRIG_SHORT_FLAG2
+  UTOP_U_OUTPUT_TRIG_SHORT_FLAG3 UTOP_U_OUTPUT_N390110 OR4_BASIC_GEN PARAMS:
+  VDD=1 VSS=0 VTHRESH=500E-3
V_UTOP_U_OUTPUT_U_Channel4_V2         UTOP_U_OUTPUT_U_Channel4_N16797304 0 
+ {Open_Mask0}
X_UTOP_U_OUTPUT_U_Channel4_U16         UTOP_IREF_SHORT_OPEN
+  UTOP_U_OUTPUT_U_Channel4_N16819919 INV_BASIC_GEN PARAMS: VDD=1 VSS=0
+  VTHRESH=500E-3
X_UTOP_U_OUTPUT_U_Channel4_U_Faults_U69        
+  UTOP_U_OUTPUT_U_Channel4_U_Faults_N65289
+  UTOP_U_OUTPUT_U_Channel4_U_Faults_N65293 UTOP_OPEN_REPORT_CH4 AND2_BASIC_GEN
+  PARAMS: VDD=1 VSS=0 VTHRESH=500E-3
V_UTOP_U_OUTPUT_U_Channel4_U_Faults_V9        
+  UTOP_U_OUTPUT_U_Channel4_U_Faults_N16724972 0 0.2
V_UTOP_U_OUTPUT_U_Channel4_U_Faults_V12        
+  UTOP_U_OUTPUT_U_Channel4_U_Faults_N58609 0 0.7
X_UTOP_U_OUTPUT_U_Channel4_U_Faults_U70        
+  UTOP_U_OUTPUT_U_Channel4_N16797304 UTOP_U_OUTPUT_U_Channel4_U_Faults_N65293
+  INV_BASIC_GEN PARAMS: VDD=1 VSS=0 VTHRESH=500E-3
X_UTOP_U_OUTPUT_U_Channel4_U_Faults_U1        
+  UTOP_U_OUTPUT_U_Channel4_U_Faults_N16724972 OUT4
+  UTOP_U_OUTPUT_U_Channel4_U_Faults_N58375 UTOP_OPEN_FAULT_CH4 COMPHYS_BASIC_GEN
+  PARAMS: VDD=1 VSS=0 VTHRESH=0.5
X_UTOP_U_OUTPUT_U_Channel4_U_Faults_U71         UTOP_SHORT_REPORT_CH4
+  UTOP_U_OUTPUT_U_Channel4_U_Faults_N16723389 UTOP_U_OUTPUT_TRIG_SHORT_FLAG4
+  OR2_BASIC_GEN PARAMS: VDD=1 VSS=0 VTHRESH=500E-3
E_UTOP_U_OUTPUT_U_Channel4_U_Faults_ABM1         UTOP_SG_FAULT_CH4 0 VALUE {
+  (if ( V(UTOP_U_OUTPUT_U_Channel4_U_Faults_N16721611) == 0, 1,0))    }
V_UTOP_U_OUTPUT_U_Channel4_U_Faults_V10        
+  UTOP_U_OUTPUT_U_Channel4_U_Faults_N58375 0 0.05
X_UTOP_U_OUTPUT_U_Channel4_U_Faults_U31         UTOP_SG_FAULT_CH4
+  UTOP_RESET_STATUS UTOP_U_OUTPUT_U_Channel4_U_Faults_N60833 N60789
+  SRLATCHRHP_BASIC_GEN PARAMS: VDD=1 VSS=0 VTHRESH=0.5
E_UTOP_U_OUTPUT_U_Channel4_U_Faults_E2        
+  UTOP_U_OUTPUT_U_Channel4_U_Faults_N16721611 0 OUT4 0 1
X_UTOP_U_OUTPUT_U_Channel4_U_Faults_U17        
+  UTOP_U_OUTPUT_U_Channel4_N16799639 UTOP_U_OUTPUT_U_Channel4_U_Faults_N65685
+  INV_BASIC_GEN PARAMS: VDD=1 VSS=0 VTHRESH=500E-3
X_UTOP_U_OUTPUT_U_Channel4_U_Faults_U67        
+  UTOP_U_OUTPUT_U_Channel4_U_Faults_N60833
+  UTOP_U_OUTPUT_U_Channel4_U_Faults_N60841
+  UTOP_U_OUTPUT_U_Channel4_U_Faults_N16723389 AND2_BASIC_GEN PARAMS: VDD=1 VSS=0
+  VTHRESH=500E-3
X_UTOP_U_OUTPUT_U_Channel4_U_Faults_U16        
+  UTOP_U_OUTPUT_U_Channel4_U_Faults_N58147
+  UTOP_U_OUTPUT_U_Channel4_U_Faults_N65685 UTOP_SHORT_REPORT_CH4 AND2_BASIC_GEN
+  PARAMS: VDD=1 VSS=0 VTHRESH=500E-3
X_UTOP_U_OUTPUT_U_Channel4_U_Faults_U3        
+  UTOP_U_OUTPUT_U_Channel4_U_Faults_N58609
+  UTOP_U_OUTPUT_U_Channel4_U_Faults_N58559
+  UTOP_U_OUTPUT_U_Channel4_U_Faults_N58473 UTOP_SHORT_FAULT_CH4
+  COMPHYS_BASIC_GEN PARAMS: VDD=1 VSS=0 VTHRESH=0.5
X_UTOP_U_OUTPUT_U_Channel4_U_Faults_U15         UTOP_SHORT_FAULT_CH4
+  UTOP_RESET_STATUS UTOP_U_OUTPUT_U_Channel4_U_Faults_N58147 N58293
+  SRLATCHSHP_BASIC_GEN PARAMS: VDD=1 VSS=0 VTHRESH=0.5
V_UTOP_U_OUTPUT_U_Channel4_U_Faults_V11        
+  UTOP_U_OUTPUT_U_Channel4_U_Faults_N58473 0 0.1
X_UTOP_U_OUTPUT_U_Channel4_U_Faults_U68        
+  UTOP_U_OUTPUT_U_Channel4_N16797559 UTOP_U_OUTPUT_U_Channel4_U_Faults_N60841
+  INV_BASIC_GEN PARAMS: VDD=1 VSS=0 VTHRESH=500E-3
X_UTOP_U_OUTPUT_U_Channel4_U_Faults_U32         UTOP_OPEN_FAULT_CH4
+  UTOP_RESET_STATUS UTOP_U_OUTPUT_U_Channel4_U_Faults_N65289 N65249
+  SRLATCHRHP_BASIC_GEN PARAMS: VDD=1 VSS=0 VTHRESH=0.5
E_UTOP_U_OUTPUT_U_Channel4_U_Faults_E1        
+  UTOP_U_OUTPUT_U_Channel4_U_Faults_N58559 0 VSENSE OUT4 1
X_UTOP_U_OUTPUT_U_Channel4_S5    UTOP_U_OUTPUT_U_Channel4_N16819919 0
+  UTOP_U_OUTPUT_U_Channel4_N16819952 UTOP_U_OUTPUT_U_Channel4_NV1
+  Channel_UTOP_U_OUTPUT_U_Channel4_S5 
X_UTOP_U_OUTPUT_U_Channel4_S4    UTOP_IREF_SHORT_OPEN 0
+  UTOP_U_OUTPUT_U_Channel4_N16819952 UTOP_U_OUTPUT_U_Channel4_NV2
+  Channel_UTOP_U_OUTPUT_U_Channel4_S4 
X_UTOP_U_OUTPUT_U_Channel4_U12         UTOP_U_OUTPUT_U_Channel4_N36808
+  UTOP_U_OUTPUT_U_Channel4_N16779473 UTOP_U_OUTPUT_U_Channel4_N16829689
+  AND2_BASIC_GEN PARAMS: VDD=1 VSS=0 VTHRESH=500E-3
X_UTOP_U_OUTPUT_U_Channel4_U65         0 UTOP_U_OUTPUT_U_Channel4_NV2 d_d1
+  PARAMS:
X_UTOP_U_OUTPUT_U_Channel4_U15         UTOP_U_OUTPUT_U_Channel4_N16829689
+  UTOP_U_OUTPUT_U_Channel4_N16829050 UTOP_U_OUTPUT_U_Channel4_N16820033
+  AND2_BASIC_GEN PARAMS: VDD=1 VSS=0 VTHRESH=500E-3
X_UTOP_U_OUTPUT_U_Channel4_U9         PWMZ0 PWMZ1 PWMZ2 PWMZ3 PWMZ4 PWMZ5
+  UTOP_U_OUTPUT_U_Channel4_N36808 UTOP_U_OUTPUT_PWM_MAP_CH4 PWM_MUX
X_UTOP_U_OUTPUT_U_Channel4_U66         0 UTOP_U_OUTPUT_U_Channel4_NV1 d_d1
+  PARAMS:
X_UTOP_U_OUTPUT_U_Channel4_U13         UTOP_U_OUTPUT_CH_ON_MASK4
+  UTOP_U_OUTPUT_U_Channel4_N16779473 INV_BASIC_GEN PARAMS: VDD=1 VSS=0
+  VTHRESH=500E-3
V_UTOP_U_OUTPUT_U_Channel4_V1         UTOP_U_OUTPUT_U_Channel4_N16797559 0 
+ {SG_Mask0}
X_UTOP_U_OUTPUT_U_Channel4_U10         CH4_DAC UTOP_DAC_FS
+  UTOP_U_OUTPUT_U_Channel4_N16820005 Iout_adjust
V_UTOP_U_OUTPUT_U_Channel4_V3         UTOP_U_OUTPUT_U_Channel4_N16799639 0 
+ {Short_Mask0}
I_UTOP_U_OUTPUT_U_Channel4_I3         UTOP_U_OUTPUT_U_Channel4_NV2 0 DC 10m  
X_UTOP_U_OUTPUT_U_Channel4_U11         UTOP_U_OUTPUT_N209584
+  UTOP_U_OUTPUT_U_Channel4_N16778792 INV_BASIC_GEN PARAMS: VDD=1 VSS=0
+  VTHRESH=500E-3
X_UTOP_U_OUTPUT_U_Channel4_S7    UTOP_U_OUTPUT_U_Channel4_OFFTIME_PATH 0
+  UTOP_U_OUTPUT_U_Channel4_N16826282 UTOP_U_OUTPUT_U_Channel4_N16826305
+  Channel_UTOP_U_OUTPUT_U_Channel4_S7 
X_UTOP_U_OUTPUT_U_Channel4_U17         TSD_ACTIVATED
+  UTOP_U_OUTPUT_U_Channel4_N16829050 INV_BASIC_GEN PARAMS: VDD=1 VSS=0
+  VTHRESH=500E-3
G_UTOP_U_OUTPUT_U_Channel4_G2         UTOP_U_OUTPUT_U_Channel4_NV1 0
+  UTOP_U_OUTPUT_U_Channel4_N16820005 0 1
X_UTOP_U_OUTPUT_U_Channel4_U14         UTOP_U_OUTPUT_U_Channel4_N16778792
+  UTOP_U_OUTPUT_CH_ON_MASK4 UTOP_U_OUTPUT_CH_ON_MASK4
+  UTOP_U_OUTPUT_U_Channel4_OFFTIME_PATH AND3_BASIC_GEN PARAMS: VDD=1 VSS=0
+  VTHRESH=500E-3
X_UTOP_U_OUTPUT_U_Channel4_U4         UTOP_U_OUTPUT_U_Channel4_N16826305 OUT4
+  d_d1 PARAMS:
X_UTOP_U_OUTPUT_U_Channel4_S3    UTOP_U_OUTPUT_U_Channel4_N16820033 0 OUT4
+  UTOP_U_OUTPUT_U_Channel4_N16819952 Channel_UTOP_U_OUTPUT_U_Channel4_S3 
I_UTOP_U_OUTPUT_U_Channel4_I4         OUT4 UTOP_U_OUTPUT_U_Channel4_N16826305
+  DC 20u  
V_UTOP_U_OUTPUT_U_Channel4_V20         UTOP_U_OUTPUT_U_Channel4_N16826282 0 3
V_UTOP_U_OUTPUT_V27         UTOP_U_OUTPUT_CH_ON_MASK2 0 {CH_ON_MASK2}
V_UTOP_U_OUTPUT_V13         UTOP_U_OUTPUT_PWM_MAP_CH11 0 {PWM_MAP_CH11}
V_UTOP_U_OUTPUT_U_Channel7_V2         UTOP_U_OUTPUT_U_Channel7_N16797304 0 
+ {Open_Mask0}
X_UTOP_U_OUTPUT_U_Channel7_U16         UTOP_IREF_SHORT_OPEN
+  UTOP_U_OUTPUT_U_Channel7_N16819919 INV_BASIC_GEN PARAMS: VDD=1 VSS=0
+  VTHRESH=500E-3
X_UTOP_U_OUTPUT_U_Channel7_U_Faults_U69        
+  UTOP_U_OUTPUT_U_Channel7_U_Faults_N65289
+  UTOP_U_OUTPUT_U_Channel7_U_Faults_N65293 UTOP_OPEN_REPORT_CH7 AND2_BASIC_GEN
+  PARAMS: VDD=1 VSS=0 VTHRESH=500E-3
V_UTOP_U_OUTPUT_U_Channel7_U_Faults_V9        
+  UTOP_U_OUTPUT_U_Channel7_U_Faults_N16724972 0 0.2
V_UTOP_U_OUTPUT_U_Channel7_U_Faults_V12        
+  UTOP_U_OUTPUT_U_Channel7_U_Faults_N58609 0 0.7
X_UTOP_U_OUTPUT_U_Channel7_U_Faults_U70        
+  UTOP_U_OUTPUT_U_Channel7_N16797304 UTOP_U_OUTPUT_U_Channel7_U_Faults_N65293
+  INV_BASIC_GEN PARAMS: VDD=1 VSS=0 VTHRESH=500E-3
X_UTOP_U_OUTPUT_U_Channel7_U_Faults_U1        
+  UTOP_U_OUTPUT_U_Channel7_U_Faults_N16724972 OUT7
+  UTOP_U_OUTPUT_U_Channel7_U_Faults_N58375 UTOP_OPEN_FAULT_CH7 COMPHYS_BASIC_GEN