* TLE2061 OPERATIONAL AMPLIFIER "MACROMODEL" SUBCIRCUIT
* CREATED USING PARTS RELEASE 4.03 ON 07/24/90 AT 10:58
* REV (N/A)      SUPPLY VOLTAGE: +/-5V
* CONNECTIONS:   NON-INVERTING INPUT
*                | INVERTING INPUT
*                | | POSITIVE POWER SUPPLY
*                | | | NEGATIVE POWER SUPPLY
*                | | | | OUTPUT
*                | | | | |
.SUBCKT TLE2061  1 2 3 4 5
*
  C1   11 12 3.373E-12
  C2    6  7 30.00E-12
  DC    5 53 DX
  DE   54  5 DX
  DLP  90 91 DX
  DLN  92 90 DX
  DP    4  3 DX
  EGND 99  0 POLY(2) (3,0) (4,0) 0 .5 .5
  FB 7 99 POLY(5) VB VC VE VLP VLN 0 1.545E6 -2E6 2E6 2E6 -2E6
  GA    6  0 11 12 188.5E-6
  GCM 0  6 10 99 30.28E-9
  HLIM 90  0 VLIM 1K
  ISS   3 10 DC 102.0E-6
  J1   11  2 10 JX
  J2   12  1 10 JX
  R2    6  9 100.0E3
  RD1 4 11 5.305E3
  RD2 4 12 5.305E3
  RO1   8  5 140
  RO2   7 99 140
  RP  3 4 56.18E3
  RSS  10 99 1.961E6
  VB    9  0 DC 0
  VC 3 53 DC 1.95
  VE   54  4 DC 1.75
  VLIM  7  8 DC 0
  VLP  91  0 DC 50
  VLN   0 92 DC 50
.MODEL DX D(IS=800.0E-18)
.MODEL JX PJF(IS=1.500E-12 BETA=696.7E-6 VTO=-.241)
.ENDS
