* TLV2334I OPERATIONAL AMPLIFIER "MACROMODEL" SUBCIRCUIT
* CREATED USING PARTS RELEASE 4.03 ON 07/29/92 AT 08:54
* REV (N/A)
* SUPPLY VOLTAGE = 3V
* CONNECTIONS:   NON-INVERTING INPUT
*                | INVERTING INPUT
*                | | POSITIVE POWER SUPPLY
*                | | | NEGATIVE POWER SUPPLY
*                | | | | OUTPUT
*                | | | | |
.SUBCKT TLV2334I 1 2 3 4 5
*
  C1   11 12 5.174E-12
  C2    6  7 10.00E-12
  DC    5 53 DX
  DE   54  5 DX
  DLP  90 91 DX
  DLN  92 90 DX
  DP    4  3 DX
  EGND 99  0 POLY(2) (3,0) (4,0) 0 .5 .5
  FB 7 99 POLY(5) VB VC VE VLP VLN 0 51.07E6 -90E6 90E6 90E6 -90E6
  GA    6  0 11 12 15.71E-6
  GCM 0  6 10 99 788.6E-12
  ISS   3 10 DC 3.800E-6
  HLIM 90  0 VLIM 1K
  J1   11  2 10 JX
  J2   12  1 10 JX
  R2    6  9 100.0E3
  RD1 60 11 63.66E3
  RD2 60 12 63.66E3
  RO1   8  5 50
  RO2   7 99 50
  RP    3  4 37.50E3
  RSS  10 99 52.63E6
  VAD  60  4  -.5
  VB    9  0 DC 0
  VC 3 53 DC 1.66
  VE   54  4 DC .66
  VLIM  7  8 DC 0
  VLP  91  0 DC 30
  VLN   0 92 DC 30
.MODEL DX D(IS=800.0E-18)
.MODEL JX PJF(IS=300.0E-15 BETA=129.9E-6 VTO=-.061)
.ENDS
