* TLV2361 OPERATIONAL AMPLIFIER "MACROMODEL" SUBCIRCUIT
* CREATED USING PARTS RELEASE 4.03 ON 01/05/96 AT 11:21
*
* (REV N/A) SUPPLY VOLTAGE +/-1.5V
* CONNECTIONS:   NON-INVERTING INPUT
*                | INVERTING INPUT
*                | | POSITIVE POWER SUPPLY
*                | | | NEGATIVE POWER SUPPLY
*                | | | | OUTPUT
*                | | | | |
.SUBCKT TLV2361  1 2 3 4 5
*
  C1   11 12 4.408E-12
  C2 6  7 37.00E-12
  DC    5 53 DX
  DE   54  5 DX
  DLP  90 91 DX
  DLN  92 90 DX
  DP    4  3 DX
  EGND 99  0 POLY(2) (3,0) (4,0) 0 .5 .5
  FB 7 99 POLY(5) VB VC VE VLP VLN 0 12.74E3 -40E6 40E6 40E6 -40E6
  GA    6  0 11 12 1.885E-3
  GCM 0  6 10 99 375.2E-9
  IEE   3 10 DC 125.0E-6
  HLIM 90  0 VLIM 1K
  Q1   11  2 13 QX
  Q2   12  1 14 QX
  R2    6  9 100.0E3
  RC1   4 11 530.5
  RC2   4 12 530.5
  RE1  13 10 116.7
  RE2  14 10 116.7
  REE  10 99 1.599E6
  RO1   8  5 50
  RO2   7 99 25
  RP    3  4 2.353E3
  VB    9  0 DC 0
  VC 3 53 DC .56
  VE   54  4 DC .56
  VLIM  7  8 DC 0
  VLP  91  0 DC .5
  VLN   0 92 DC 20
.MODEL DX D(IS=800.0E-18)
.MODEL QX PNP(IS=800.0E-18 BF=3.125E3)
.ENDS
