*$ 
* TLV225x_3V
*****************************************************************************
* (C) Copyright 2022 Texas Instruments Incorporated. All rights reserved.                                            
*****************************************************************************
** This model is designed as an aid for customers of Texas Instruments.
** TI and its licensors and suppliers make no warranties, either expressed
** or implied, with respect to this model, including the warranties of 
** merchantability or fitness for a particular purpose.  The model is
** provided solely on an "as is" basis.  The entire risk as to its quality
** and performance is with the customer
*****************************************************************************
*
* This model is subject to change without notice. Texas Instruments
* Incorporated is not responsible for updating this model.
*
*****************************************************************************
*
** Released by: Online Design Tools, Texas Instruments Inc.
* Part: TLV225x_3V
* Date: 09AUG2022
* EVM Order Number: N/A 
* EVM Users Guide:  N/A 
* Datasheet: SLOS185D - FEBRUARY 1997 - REVISED AUGUST 2006
* Parts is a MicroSim product.
*
* Model Version: Final 1.1
*
*****************************************************************************
*
* Updates:
*
* Final 1.1
* 1. Updated PSpice Symbol.
* 2. Added .ENDS name as TLV225x_3V.
*
* Final 1.0
* Release to Web.
* 
*****************************************************************************
* Model Usage Notes:
* 1. Model file is updated with latest header.
* 2. TLV225x_3V Model is applicable to TLV2252* and TLV2254* family devices.
***************************************************************************** 
* CONNECTIONS:      NON-INVERTING INPUT
*                   | INVERTING INPUT
*                   | | POSITIVE POWER SUPPLY
*                   | | | NEGATIVE POWER SUPPLY
*                   | | | | OUTPUT
*                   | | | | |
.SUBCKT TLV225x_3V  1 2 3 4 5
*****************************************************************************
C1   11 12 8.09E-12
C2    6  7 60.00E-12
CPSR 85 86 7.96E-9
DCM+ 81 82 DX
DCM- 83 81 DX
DC 5 53 DX
DE   54  5 DX
DLP  90 91 DX
DLN  92 90 DX
DP    4  3 DX
ECMR 84 99 (2,99) 1
EGND 99  0 POLY(2) (3,0) (4,0) 0 .5 .5
EPSR 85 0 POLY(1) (3,4) -300E-6  100E-6
ENSE 89 2 POLY(1) (88,0) 200E-6 1
FB  7 99 POLY(6) VB VC VE VLP VLN VPSR 0 64.80E6 -60E6 60E6 60E6 -60E6 60E6
GA 6  0 11 12 37.32E-6
GCM 0  6 10 99 10.378E-9
GPSR 85 86 (85,86) 100E-6
GRD1 60 11 (60,11) 33.93E-6
GRD2 60 12 (60,12) 33.93E-6
HLIM 90  0 VLIM 1K
HCMR 80 1 POLY(2) VCM+ VCM- 0 1E2 1E2
IRP 3 4 28E-6
ISS   3 10 DC 6.000E-6
IIO 2 0 .5E-12
I1 88 0 1E-21
J1   11  89 10 JX
J2   12  80 10 JX
R2    6  9 100.0E3
RCM 84 81 1K
RN1 88 0 1E3
RO1   8  5 80
RO2   7 99 60
RSS  10 99 33.33E6
VAD 60 4 -.5
VCM+ 82 99  0.2
VCM- 83 99 -1.5
VB    9  0 DC 0
VC    3 53 DC .6
VE   54  4 DC .6
VLIM  7  8 DC 0
VLP  91  0 DC -.3
VLN 0 92 DC 5.1
VPSR 0 86 DC 0
.MODEL DX D(IS=800.0E-18)
.MODEL JX PJF(IS=500.0E-15 BETA=354.7E-6 VTO=-.04 KF=6.6E-18)
.ENDS TLV225x_3V
