* TLV2221 OPERATIONAL AMPLIFIER "MACROMODEL" SUBCIRCUIT
* CREATED USING PARTS RELEASE 4.03 ON 06/17/96 AT 14:24
* REV(N/A)  3 VOLT MODEL
* CONNECTIONS:   NON-INVERTING INPUT
*                | INVERTING INPUT
*                | | POSITIVE POWER SUPPLY
*                | | | NEGATIVE POWER SUPPLY
*                | | | | OUTPUT
*                | | | | |
.SUBCKT TLV2221  1 2 3 4 5
*
  C1   11 12 12.24E-12
  C2    6  7 50.00E-12
  DC    5 53 DX
  DE   54  5 DX
  DLP  90 91 DX
  DLN  92 90 DX
  DP    4  3 DX
  EGND 99  0 POLY(2) (3,0) (4,0) 0 .5 .5
  FB 7 99 POLY(5) VB VC VE VLP VLN 0 440.8E3 -80E3 80E3 80E3 -80E3
  GA    6  0 11 12 78.54E-6
  GCM 0  6 10 99 12.439E-9
  ISS   3 10 DC 9.000E-6
  HLIM 90  0 VLIM 1K
  J1   11  2 10 JX
  J2   12  1 10 JX
  R2    6  9 100.0E3
  RD1 60 11 12.73E3
  RD2 60 12 12.73E3
  RO1   8  5 45
  RO2   7 99 45
  RP 3  4 32.97E3
  RSS  10 99 22.22E6
  VAD  60 4 -.5
  VB    9  0 DC 0
  VC 3 53 DC .655
  VE   54  4 DC .655
  VLIM  7  8 DC 0
  VLP  91  0 DC 2.4
  VLN 0 92 DC 4.4
.MODEL DX D(IS=800.0E-18)
.MODEL JX PJF(IS=500.0E-15 BETA=1.371E-3 VTO=-.01)
.ENDS
