* TLV2211 OPERATIONAL AMPLIFIER "MACROMODEL" SUBCIRCUIT
* CREATED USING PARTS RELEASE 4.03 ON 04/26/96 AT 12:39
* REV (N/A)  3 VOLT MODEL
* CONNECTIONS:   NON-INVERTING INPUT
*                | INVERTING INPUT
*                | | POSITIVE POWER SUPPLY
*                | | | NEGATIVE POWER SUPPLY
*                | | | | OUTPUT
*                | | | | |
.SUBCKT TLV2211  1 2 3 4 5
*
  C1   11 12 10.86E-12
  C2    6  7 50.00E-12
  DC    5 53 DX
  DE   54  5 DX
  DLP  90 91 DX
  DLN  92 90 DX
  DP    4  3 DX
  EGND 99  0 POLY(2) (3,0) (4,0) 0 .5 .5
  FB 7 99 POLY(5) VB VC VE VLP VLN 0 3.006E6 -3E6 3E6 3E6 -3E6
  GA    6  0 11 12 10.05E-6
  GCM 0  6 10 99 1316.6E-12
  ISS   3 10 DC 1.250E-6
  HLIM 90  0 VLIM 1K
  J1   11  2 10 JX
  J2   12  1 10 JX
  R2    6  9 100.0E3
  RD1  60 11 99.47E3
  RD2  60 12 99.47E3
  RO1   8  5 50
  RO2   7 99 150
  RP 3  4 273.5E3
  RSS  10 99 160.0E6
  VAD  60 4 -0.5
  VB    9  0 DC 0
  VC 3 53 DC .56
  VE   54  4 DC .56
  VLIM  7  8 DC 0
  VLP  91  0 DC 0
  VLN 0 92 DC 2.5
.MODEL DX D(IS=800.0E-18)
.MODEL JX PJF(IS=500.0E-15 BETA=131.7E-6 VTO=-.02)
.ENDS
