*$ 
* TLV2264x
*****************************************************************************
* (C) Copyright 2020 Texas Instruments Incorporated. All rights reserved.                                            
*****************************************************************************
** This model is designed as an aid for customers of Texas Instruments.
** TI and its licensors and suppliers make no warranties, either expressed
** or implied, with respect to this model, including the warranties of 
** merchantability or fitness for a particular purpose.  The model is
** provided solely on an "as is" basis.  The entire risk as to its quality
** and performance is with the customer
*****************************************************************************
*
* This model is subject to change without notice. Texas Instruments
* Incorporated is not responsible for updating this model.
*
*****************************************************************************
*
** Released by: Online Design Tools, Texas Instruments Inc.
* Part: TLV2264x
* Date: 07/22/93
* Parts is a MicroSim product.
*
* Model Version: Final 1.0
*
*****************************************************************************
*
* Final 1.0
* Release to Web.
* 
* Model Usage Notes:
* 1. Model file is updated with latest header.
*****************************************************************************
* CONNECTIONS:    NON-INVERTING INPUT
*                 | INVERTING INPUT
*                 | | POSITIVE POWER SUPPLY
*                 | | | NEGATIVE POWER SUPPLY
*                 | | | | OUTPUT
*                 | | | | |
.SUBCKT TLV2264x  1 2 3 4 5
*
  C1   11 12 5.004E-12
  C2    6  7 20.00E-12
  DC    5 53 DX
  DE   54  5 DX
  DLP  90 91 DX
  DLN  92 90 DX
  DP    4  3 DX
  EGND 99  0 POLY(2) (3,0) (4,0) 0 .5 .5
  FB 7 99 POLY(5) VB VC VE VLP VLN 0 5.89E6 -10E6 10E6 10E6 -10E6
  GA    6  0 11 12 62.83E-6
  GCM 0  6 10 99 22.34E-9
  ISS   3 10 DC 11.00E-6
  HLIM 90  0 VLIM 1K
  J1   11  2 10 JX
  J2   12  1 10 JX
  R2    6  9 100.0E3
  RD1 60 11 15.92E3
  RD2 60 12 15.92E3
  RO1   8  5 135
  RO2   7 99 135
  RP 3  4 15.87E3
  RSS  10 99 18.18E6
  VAD  60 4 -.5
  VB    9  0 DC 0
  VC 3 53 DC .6
  VE   54  4 DC .6
  VLIM  7  8 DC 0
  VLP  91  0 DC 0
  VLN 0 92 DC 9.4
.MODEL DX D(IS=800.0E-18)
.MODEL JX PJF(IS=500.0E-15 BETA=717.8E-6 VTO=-.04)
.ENDS