* TLV2231 OPERATIONAL AMPLIFIER "MACROMODEL" SUBCIRCUIT
* CREATED USING PARTS RELEASE 4.03 ON 06/19/96 AT 14:18
* REV(N/A) 3 VOLT MODEL
* CONNECTIONS:   NON-INVERTING INPUT
*                | INVERTING INPUT
*                | | POSITIVE POWER SUPPLY
*                | | | NEGATIVE POWER SUPPLY
*                | | | | OUTPUT
*                | | | | |
.SUBCKT TLV2231  1 2 3 4 5
*
  C1   11 12 12.3E-12
  C2    6  7 50.00E-12
  DC    5 53 DX
  DE   54  5 DX
  DLP  90 91 DX
  DLN  92 90 DX
  DP    4  3 DX
  EGND 99  0 POLY(2) (3,0) (4,0) 0 .5 .5
  FB 7 99 POLY(5) VB VC VE VLP VLN 0 114E3 -20E3 20E3 20E3 -20E3
  GA    6  0 11 12 314.2E-6
  GCM 0  6 10 99 210.5E-9
  ISS 3 10 DC 71.20E-6
  HLIM 90  0 VLIM 1K
  J1   11  2 10 JX
  J2   12  1 10 JX
  R2    6  9 100.0E3
  RD1 60 11 3.183E3
  RD2 60 12 3.183E3
  RO1   8  5 50
  RO2   7 99 25
  RP 3  4 4.420E3
  RSS  10 99 3.200E6
  VAD  60 4 -.5
  VB    9  0 DC 0
  VC 3 53 DC .705
  VE   54  4 DC .705
  VLIM  7  8 DC 0
  VLP  91  0 DC 8.4
  VLN 0 92 DC 13.4
.MODEL DX D(IS=800.0E-18)
.MODEL JX PJF(IS=500.0E-15 BETA=3.158E-3 VTO=-.055)
.ENDS
