*source TLV3811
* PSpice Model Editor - Version 17.4.0
*$
* TLV3811
*****************************************************************************
* (C) Copyright 2019 Texas Instruments Incorporated. All rights reserved.
*****************************************************************************
** This model is designed as an aid for customers of Texas Instruments.
** TI and its licensors and suppliers make no warranties, either expressed
** or implied, with respect to this model, including the warranties of 
** merchantability or fitness for a particular purpose.  The model is
** provided solely on an "as is" basis.  The entire risk as to its quality
** and performance is with the customer.
*****************************************************************************
*
* This model is subject to change without notice. Texas Instruments
* Incorporated is not responsible for updating this model
*
*****************************************************************************
*
** Released by: Texas Instruments Inc.
* Part: TLV3811
* Date: 08/29/2022
* Model Type: All In One
* Simulator: PSPICE 
* Simulator Version: 17.4.0.p001
* EVM Order Number: N/A 
* EVM Users Guide:  N/A 
* Datasheet: SNOSDD7 - December 2021
* Model Version: 1.0
*
*****************************************************************************
*
* Updates:
*
* Version 1.0 : Release to Web        
*
*****************************************************************************
* Model Notes:
*  Modeled parameters:
*  Supply Voltage Range (see below)
*  Input Voltage Range (see below)
*  Supply Current (typical)
*  Input Bias Currents (typical)
*  Typical Offset Voltage (see below)
*  Propagation Delay (fixed)
* Error Conditions:
* If either input goes beyond the recommended input voltage range, each output (OUT+ and OUT-) will go to zero.
* If the supply goes beyond the recommended supply voltage range, each output (OUT+ and OUT-) will go to zero. 
* The real device will NOT do this.
*
* OFFSET VOLTAGE: Offset voltage can be adjusted in the macro with device V_VOS
*
*****************************************************************************
* source TLV3811
.SUBCKT TLV3811 IN+ IN- VCC GND OUT+ OUT-
X_U5 EN INRANGE OUT+ OUT- N886442 Output_Stage  
C_CINNL         GND IN-  0.5p  TC=0,0 
C_CINNH         IN- VCC  0.5p  TC=0,0 
V_VOS         IN+BUFF N886176 0.5m
X_U3         N886176 IN-BUFF N886410 VCC_BUFFER GND_BUFFER N886540 HPA_COMPHYS
C_CINPL         GND IN+  0.5p  TC=0,0 
I_IBP         IN+ GND DC 1u  
X_U4 N886410 N886426 Prop_Delay  
I_IS         N885820 GND DC 20m  
X_U2 IN-BUFF IN+BUFF INRANGE VCC_BUFFER GND_BUFFER INPUTRANGE  
R_RIS         N885820 VCC  1u TC=0,0 
X_U1 IN+ IN+BUFF IN- IN-BUFF Input_Buffer  
X_U6 VCC VCC_BUFFER GND GND_BUFFER Supply_Buffer  
I_IBN         IN- GND DC 1u  
C_CINPH         IN+ VCC  0.5p  TC=0,0 
E_E1         N886442 GND_BUFFER N886426 GND_BUFFER 2
V_VHYST         N886540 0 0.7m
X_U7 EN VCC_BUFFER GND_BUFFER Supply_Enable  
.ENDS
.SUBCKT Supply_Enable EN VCCI_BUFFER VEE_BUFFER  
V_VS_MIN_SET1         N784909 0 2.39
V_VS_MIN_SET         N785081 0 2.39
X_U15         N785081 N784683 POR 1V 0 VCC_Range
X_U13         VCCI_BUFFER VEE_BUFFER N784683 1V 0 Difference
X_U17         N784697 N784807 EN 1V 0 ORGATE 
V_VLOGIC         1V 0 1
X_U16         N784909 N784683 N784807 1V 0 VCC_Range
V_VS_MAX_SET         N784593 0 5.56
X_U5         N784683 N784593 N784697 1V 0 VCC_Range
.ENDS
.SUBCKT Supply_Buffer VCC VCCI_BUFFER VEE VEE_BUFFER  
X_U1         VCC VEE VCCI_BUFFER VEE_BUFFER SUPPLY_BUFFER1 
.ENDS
.SUBCKT Input_Buffer IN+ IN+_BUFF IN- IN-_BUFF  
X_U1         IN+ IN- IN+_BUFF IN-_BUFF SUPPLY_BUFFER1 
.ENDS
.SUBCKT INPUTRANGE INN INP INRANGE V+_BUFFER V-_BUFFER  
V_VCMNN         N20539 V-_BUFFER 1.5
X_U1         N20155 INP N20826 V+_BUFFER V-_BUFFER VINRANGE_393
X_U21         N202710 INN N20833 V+_BUFFER V-_BUFFER VINRANGE_393
X_U22         INP N20415 N20840 V+_BUFFER V-_BUFFER VINRANGE_393
X_U23         INN N20539 N20531 V+_BUFFER V-_BUFFER VINRANGE_393
V_VCMPN         N202710 V+_BUFFER 0.1
V_VCMNP         N20415 V-_BUFFER 1.5
V_VCMPP         N20155 V+_BUFFER 0.1
X_U24         N20826 N20833 N20840 N20531 INRANGE V+_BUFFER V-_BUFFER 4ORGATE 
.ENDS
.SUBCKT Prop_Delay VIN VOUT  
T_TPD         N03175 0 VOUT 0 Z0=50 TD=800p  
R_RT         0 VOUT  50 TC=0,0 
R_RS         N03175 VIN  50 TC=0,0 
.ENDS
.SUBCKT Output_Stage EN IN_RANGE OUT+ OUT- VIN  
V_VLOGIC         1V 0 1
X_S3    VIN 0 UPPER N895447 Output_Stage_S3 
C_C2         0 N896123  5p  TC=0,0 
X_U9         0 N8963931 N896509 1V 0 DIFFERENCE
X_U8         0 N896509 LOWER 1V 0 DIFFERENCE
V_V11         N8963931 0 1.0642
X_S6    VIN 0 N895429 LOWER Output_Stage_S6 
X_S4    0 VIN N895447 LOWER Output_Stage_S4 
X_S16    OUTOFRANGE 0 N895549 OUT+ Output_Stage_S16 
X_U3         0 N895889 UPPER 1V 0 DIFFERENCE
R_R9         N895907 N895447  3.5k TC=0,0 
R_R5         N895429 N896123  0.1 TC=0,0 
R_R4         N895447 N895549  0.1 TC=0,0 
X_U2         IN_RANGE EN OUTOFRANGE 1V 0 ORGATE
X_U7         0 N8957211 N895889 1V 0 DIFFERENCE
V_V12         N895907 0 1.25
V_V10         N8957211 0 1.4355
R_R7         0 OUT-  100MEG TC=0,0 
X_S5    0 VIN UPPER N895429 Output_Stage_S5 
X_S17    OUTOFRANGE 0 OUT- N896123 Output_Stage_S17 
R_R6         0 OUT+  100MEG TC=0,0 
C_C1         0 N895549  5p  TC=0,0 
R_R8         N895429 N895907  3.5k TC=0,0 
.ENDS
.subckt Output_Stage_S3 1 2 3 4  
S_S3         3 4 1 2 _S3
RS_S3         1 2 1G
.MODEL         _S3 VSWITCH Roff=1e12 Ron=1.0 Voff=1.25 Von=2.5
.ends Output_Stage_S3
.subckt Output_Stage_S6 1 2 3 4  
S_S6         3 4 1 2 _S6
RS_S6         1 2 1G
.MODEL         _S6 VSWITCH Roff=1e12 Ron=1.0 Voff=1.25 Von=2.5
.ends Output_Stage_S6
.subckt Output_Stage_S4 1 2 3 4  
S_S4         3 4 1 2 _S4
RS_S4         1 2 1G
.MODEL         _S4 VSWITCH Roff=1e12 Ron=1.0 Voff=-2.5 Von=-1.25
.ends Output_Stage_S4
.subckt Output_Stage_S16 1 2 3 4  
S_S16         3 4 1 2 _S16
RS_S16         1 2 1G
.MODEL         _S16 VSWITCH Roff=1e12 Ron=1.0 Voff=1 Von=0
.ends Output_Stage_S16
.subckt Output_Stage_S5 1 2 3 4  
S_S5         3 4 1 2 _S5
RS_S5         1 2 1G
.MODEL         _S5 VSWITCH Roff=1e12 Ron=1.0 Voff=-2.5 Von=-1.25
.ends Output_Stage_S5
.subckt Output_Stage_S17 1 2 3 4  
S_S17         3 4 1 2 _S17
RS_S17         1 2 1G
.MODEL         _S17 VSWITCH Roff=1e12 Ron=1.0 Voff=1 Von=0
.ends Output_Stage_S17
.SUBCKT HPA_COMPHYS INP INN OUT_OUT VDD VSS VHYS
EVMID VMID 0 VALUE = { ( V(VDD) + V(VSS) )/2 }
EVH VH 0 VALUE = { ( V(VHYS)/2) }
EINNNEW INNNEW 0 VALUE = { IF( ( V(OUT_OUT) < V(VMID) ),(V(INN) + (V(VH))),( V(INN) - V(VH) ) ) }
EOUT OUT 0 VALUE = { IF( ( V(INP) > V(INNNEW) ), V(VDD), V(VSS) ) }
R1 OUT OUT_OUT 1
C1 OUT_OUT 0 1e-12
.ENDS
*$
*$
*$
*$
.SUBCKT ORGATE 1 2 3 VDD VSS
E1 4 0 VALUE = { IF( ((V(1)< (V(VDD)+V(VSS))/2 ) & (V(2)< (V(VDD)+V(VSS))/2 )), V(VSS), V(VDD) ) }
R1 4 3 1
C1 3 0 1e-12
.ENDS
*$
.SUBCKT Difference 1 2 OUT VDD VSS 
EOUT OUT1 0 VALUE = { V(1)- V(2)}
R1 OUT1 OUT 1
*C1 OUT 0 1e-12
.ENDS
*$
.SUBCKT SUPPLY_BUFFER1 1 2 VDD_NEW VSS_NEW 
EVDD_NEW VDD_NEW 0 VALUE = {V(1)}
EVSS_NEW VSS_NEW 0 VALUE = {V(2)}
.ENDS
*$
.SUBCKT VCC_Range 1 2 OUT VDD VSS 
EOUT OUT2 0 VALUE = { IF( ( V(1) >= V(2) ), V(VDD), V(VSS) ) }
R1 OUT OUT2 1
C1 OUT 0 1e-12
.ENDS
*$
.SUBCKT VINRANGE_393 1 2 OUT VDD VSS 
EOUT OUT2 0 VALUE = { IF( ( V(1) >= V(2) ), V(VSS), V(VDD) ) }
R1 OUT2 OUT 1
C1 OUT 0 1e-12
.ENDS
*$
.SUBCKT 4ORGATE 1 2 3 4 5 VDD VSS
E1 6 0 VALUE = { IF( ((V(1)> (V(VDD)+V(VSS))/2 ) | (V(2)> (V(VDD)+V(VSS))/2 ) | (V(3)> (V(VDD)+V(VSS))/2 ) | (V(4)> (V(VDD)+V(VSS))/2 )), V(VDD), V(VSS) ) }
R1 5 6 1
.ENDS
