*$
* TLV62569
*****************************************************************************
* (C) Copyright 2016 Texas Instruments Incorporated. All rights reserved.
*****************************************************************************
** This model is designed as an aid for customers of Texas Instruments.
** TI and its licensors and suppliers make no warranties, either expressed
** or implied, with respect to this model, including the warranties of
** merchantability or fitness for a particular purpose. The model is
** provided solely on an "as is" basis. The entire risk as to its quality
** and performance is with the customer
*****************************************************************************
*
* Released by: WEBENCH Design Center, Texas Instruments Inc.
* Part: TLV62569
* Date: 08DEC2016
* Model Type: Transient
* Simulator: PSpice
* Simulator Version: 16.2
* EVM Users Guide: SLVUAY6
* Datasheet: SLVSDG1
* Model Version: Final 1.0
*
*****************************************************************************
* Final 1.0
* Release to Web
*
******************************************************************************
.SUBCKT TLV62569_TRANS EN FB SW VIN GND
R_U7_R143         U7_N16831622 U7_N16818924  1  
C_U7_C3         0 U7_N16808630  1n  
X_U7_U627         PAUSE PWM U7_N16786454 NOR2_BASIC_GEN PARAMS: VDD=1 VSS=0
+  VTHRESH=500E-3
X_U7_S32    U7_PMOS_CTRL 0 U7_N16795596 SW Driver_U7_S32 
C_U7_C2         0 U7_N16810523  1n  
X_U7_U8         0 U7_N16808630 LDRV U7_NMOS_CTRL MUX2_BASIC_GEN PARAMS: VDD=1
+  VSS=0 VTHRESH=0.8
X_U7_H2    U7_N16796761 0 ISENSE_LS 0 Driver_U7_H2 
X_U7_U630         U7_N16803234 U7_N16803765 HDRV AND2_BASIC_GEN PARAMS: VDD=1
+  VSS=0 VTHRESH=500E-3
C_U7_C77         U7_N16818924 0  20n  
X_U7_U626         PWM U7_N16818924 U7_N16803234 AND2_BASIC_GEN PARAMS: VDD=1
+  VSS=0 VTHRESH=500E-3
D_U7_D14         U7_N16796761 SW d_d1  
R_U7_R144         U7_N16831630 U7_N16818544  1  
D_U7_D15         SW U7_N16795596 d_d1 
X_U7_U7         0 U7_N16810523 HDRV U7_PMOS_CTRL MUX2_BASIC_GEN PARAMS: VDD=1
+  VSS=0 VTHRESH=0.8
X_U7_H1    VIN U7_N16795596 ISW 0 Driver_U7_H1 
E_U7_ABM170         U7_N16831622 0 VALUE { {IF(V(LDRV) > 0.8,0,1)}    }
X_U7_U629         PAUSE U7_N16803765 INV_BASIC_GEN PARAMS: VDD=1 VSS=0
+  VTHRESH=500E-3
R_U7_R5         U7_N16808677 U7_N16808630  1  
X_U7_U628         U7_N16786454 U7_N16818544 LDRV AND2_BASIC_GEN PARAMS: VDD=1
+  VSS=0 VTHRESH=500E-3
R_U7_R4         U7_N16810572 U7_N16810523  1  
C_U7_C78         U7_N16818544 0  20n  
E_U7_ABM171         U7_N16831630 0 VALUE { {IF(V(HDRV) > 0.8,0,1)}    }
E_U7_ABM5         U7_N16808677 0 VALUE { 1m*((58096.431/(V(VIN)
+  -95.046))+1472.294)    }
X_U7_S31    U7_NMOS_CTRL 0 SW U7_N16796761 Driver_U7_S31 
E_U7_ABM4         U7_N16810572 0 VALUE { 1m*((-137.882/(V(VIN)
+  +0.2362))+812.3987)    }
C_U3_C5         0 INT_REF  1n  
D_U3_D64         SS_TR U3_N16775689 d_d1  
E_U3_ABM180         U3_N16777269 0 VALUE { IF(V(SDWN) > 0.5,1,0)    }
E_U3_ABM2         U3_N16777727 0 VALUE { LIMIT(V(U3_N16639490), 0, 0.6)    }
C_U3_C16         0 U3_N16777272  1n  
R_U3_R15         U3_N16777269 U3_N16777272  1  
X_U3_S68    U3_N16777272 0 SS_TR 0 SoftStart_U3_S68 
E_U3_ABM174         U3_N16639490 0 VALUE { IF(V(SS_TR) < 500m, V(SS_TR),  
+ IF(V(SS_TR) > 800m, 0.6,  
+ (-0.8279*V(SS_TR)*V(SS_TR)) +(1.4279*V(SS_TR)) -0.007))  }
V_U3_V70         U3_N16775689 0 3
C_U3_C15         0 SS_TR  0.828n IC=0 
R_U3_R10         U3_N16777727 INT_REF  1  
D_U3_D63         0 SS_TR d_d1  
G_U3_ABMII1         U3_N16775689 SS_TR VALUE { {IF(V(SDWN) > 0.5,0,1.1u)}    }
C_U30_C5         0 U30_N16626295  1n  
X_U30_U33         U30_SDWN_N SDWN INV_BASIC_GEN PARAMS: VDD=1 VSS=0
+  VTHRESH=500E-3
D_U30_D1         U30_EN_LOGIC U30_N16626407 d_d1  
E_U30_ABM4         U30_N16626311 0 VALUE { (V(U30_EN_LOGIC) * -0.1) + 0.9    }
C_U30_C11         0 U30_EN_LOGIC  1n  
R_U30_R4         U30_N16626311 U30_N16626295  1  
R_U30_R11         U30_N16626407 U30_EN_LOGIC  273.6k  
X_U30_U5         EN U30_N16626295 U30_N16626407 COMP_BASIC_GEN PARAMS: VDD=1
+  VSS=0 VTHRESH=0.5
E_U30_ABM1         U30_N16625613 0 VALUE { (V(U30_UVLO_OUT) * -100m + 2.45)   
+  }
C_U30_C10         0 U30_N16625631  1n  
X_U30_U34         U30_UVLO_OUT U30_EN_LOGIC U30_SDWN_N AND2_BASIC_GEN PARAMS:
+  VDD=1 VSS=0 VTHRESH=500E-3
X_U30_U30         VIN U30_N16625631 U30_UVLO_OUT COMP_BASIC_GEN PARAMS: VDD=1
+  VSS=0 VTHRESH=0.5
R_U30_R10         U30_N16625613 U30_N16625631  1  
V_V47         SET0 GND 0Vdc
X_U11_U17         U11_N16599687 U11_N16599900 U11_N16603042 U11_N16601049
+  U11_N16603460 OR4_BASIC_GEN PARAMS: VDD=1 VSS=0 VTHRESH=500E-3
X_U11_U6         TOFF_COMP U11_TOFF_COMP_Z INV_BASIC_GEN PARAMS: VDD=1 VSS=0
+  VTHRESH=500E-3
X_U11_U13         U11_S0_Z U11_S1 U11_RESET_Z U11_SKIP_TIMER_Z U11_N16603042
+  AND4_BASIC_GEN PARAMS: VDD=1 VSS=0 VTHRESH=500E-3
X_U11_U23         U11_N16598498 U11_N16598475 U11_N16597961 U11_N16627508
+  OR3_BASIC_GEN PARAMS: VDD=1 VSS=0 VTHRESH=500E-3
X_U11_U27         U11_N16603849 U11_S1 BUF_DELAY_BASIC_GEN PARAMS: VDD=1 VSS=0
+  VTHRESH=0.5 DELAY=10n
X_U11_U7         SDWN U11_RESET_Z INV_BASIC_GEN PARAMS: VDD=1 VSS=0
+  VTHRESH=500E-3
X_U11_U19         U11_S1 U11_S0_Z U11_RESET_Z ISENSE_COMP U11_N16598498
+  AND4_BASIC_GEN PARAMS: VDD=1 VSS=0 VTHRESH=500E-3
X_U11_U11         U11_S1 U11_S0_Z U11_RESET_Z ISENSE_COMP U11_N16599687
+  AND4_BASIC_GEN PARAMS: VDD=1 VSS=0 VTHRESH=500E-3
D_U11_D59         U11_N16608196 COMP_HIGH d_d1  
X_U11_U20         U11_S1 U11_S0_Z PWM AND2_BASIC_GEN PARAMS: VDD=1 VSS=0
+  VTHRESH=500E-3
X_U11_U8         U11_S1 U11_S1_Z INV_BASIC_GEN PARAMS: VDD=1 VSS=0
+  VTHRESH=500E-3
X_U11_U26         U11_N16627508 U11_S0 BUF_DELAY_BASIC_GEN PARAMS: VDD=1 VSS=0
+  VTHRESH=0.5 DELAY=10n
X_U11_U5         U11_S0 U11_S0_Z INV_BASIC_GEN PARAMS: VDD=1 VSS=0
+  VTHRESH=500E-3
X_U11_U14         U11_S0_Z U11_S1_Z U11_RESET_Z U11_SKIP_REQUEST_Z
+  U11_N16601049 AND4_BASIC_GEN PARAMS: VDD=1 VSS=0 VTHRESH=500E-3
X_U11_U16         U11_N16601414 TOFF_COMP U11_N16601970 AND2_BASIC_GEN PARAMS:
+  VDD=1 VSS=0 VTHRESH=500E-3
X_U11_U10         COMP_HIGH U11_SKIP_REQUEST_Z INV_BASIC_GEN PARAMS: VDD=1
+  VSS=0 VTHRESH=500E-3
X_U11_U21         U11_S1_Z PAUSE BUF_BASIC_GEN PARAMS: VDD=1 VSS=0 VTHRESH=0.5
X_U11_U15         U11_S0 U11_S1 U11_RESET_Z U11_SKIP_REQUEST_Z U11_N16601414
+  AND4_BASIC_GEN PARAMS: VDD=1 VSS=0 VTHRESH=500E-3
X_U11_U24         U11_S0 U11_S1 U11_RESET_Z U11_TOFF_COMP_Z U11_N16598475
+  AND4_BASIC_GEN PARAMS: VDD=1 VSS=0 VTHRESH=500E-3
X_U11_U12         U11_S0 U11_S1 U11_RESET_Z U11_ZERO_COMP_Z U11_N16599900
+  AND4_BASIC_GEN PARAMS: VDD=1 VSS=0 VTHRESH=500E-3
X_U11_U22         COMP_HIGH U11_N16608196 U11_SKIP_TIMER_Z NAND2_BASIC_GEN
+  PARAMS: VDD=1 VSS=0 VTHRESH=500E-3
R_U11_R256         COMP_HIGH U11_N16608196  5.76k  
X_U11_U18         U11_N16603460 U11_N16601970 U11_N16603849 OR2_BASIC_GEN
+  PARAMS: VDD=1 VSS=0 VTHRESH=500E-3
X_U11_U25         U11_S1 U11_S0 COMP_HIGH U11_N16597961 AND3_BASIC_GEN PARAMS:
+  VDD=1 VSS=0 VTHRESH=500E-3
C_U11_C147         0 U11_N16608196  1n  
X_U11_U9         ZERO_COMP U11_ZERO_COMP_Z INV_BASIC_GEN PARAMS: VDD=1 VSS=0
+  VTHRESH=500E-3
R_U4_R15         U4_A1 U4_A2  1  
E_U4_ABM182         U4_N16778945 0 VALUE { IF(V(SDWN) > 0.5,1,0)    }
G_U4_ABM2I3         0 COMP VALUE { {LIMIT((V(INT_REF) - V(FB))*40u, -2u,2u)}   
+  }
R_U4_Rc1         0 U4_N167762860  90k  
E_U4_ABM8         U4_N7414368 0 VALUE { {IF(V(COMP) > 1.2225,1,0)}    }
C_U4_C15         0 U4_N16778948  1n  
X_U4_U625         FB INT_REF U4_N16781719 COMP_BASIC_GEN PARAMS: VDD=1 VSS=0
+  VTHRESH=0.5
C_U4_C9         0 U4_N7414364  1n  
R_U4_R16         U4_N16778945 U4_N16778948  1  
X_U4_U614         U4_N7414364 U4_SDWN_N CLIM AND2_BASIC_GEN PARAMS: VDD=1 VSS=0
+  VTHRESH=500E-3
D_U4_D10         COMP U4_N7407271 d_d1
X_U4_S68    U4_N16778948 0 COMP 0 ErrorAmp_U4_S68 
V_U4_V6         U4_N7407271 0 1.2225
C_U4_Cc1         U4_N167762860 COMP  40p  
R_U4_R13         U4_N16794381 PFM_MODE  1  
E_U4_ABM180         U4_A1 0 VALUE { IF(V(SDWN) > 0.5,0,0.7675)    }
E_U4_ABM181         U4_N16794381 0 VALUE { IF((V(U4_A1)-V(U4_A2)) > 100n, 1,0 )
+     }
C_U4_C11         0 PFM_MODE  1n  
D_U4_D9         U4_A2 COMP d_d1
X_U4_U624         SDWN U4_SDWN_N INV_BASIC_GEN PARAMS: VDD=1 VSS=0
+  VTHRESH=500E-3
R_U4_R11         U4_N7414368 U4_N7414364  1  
C_U4_Cc2         0 COMP  750f  
X_U4_U615         U4_N16781719 PFM_MODE COMP_HIGH AND2_BASIC_GEN PARAMS: VDD=1
+  VSS=0 VTHRESH=500E-3
X_U5_U12         0 ISENSE_LS U5_N16788510 COMP_BASIC_GEN PARAMS: VDD=1 VSS=0
+  VTHRESH=0.5
C_U5_C146         0 U5_N16489275  1n  
X_U5_U600         U5_ISWF U5_ICTRL ISENSE_COMP COMP_BASIC_GEN PARAMS: VDD=1
+  VSS=0 VTHRESH=0.5
E_U5_ABM155         U5_ICTRL 0 VALUE { LIMIT(((V(COMP)-0.61)/3.5k)*20000,0,3.5)
+     }
X_U5_U13         LDRV U5_N16788510 U5_N16788570 AND2_BASIC_GEN PARAMS: VDD=1
+  VSS=0 VTHRESH=500E-3
X_U5_U14         U5_N16788570 HDRV ZERO_COMP N16788580 SRLATCHRHP_BASIC_GEN
+  PARAMS: VDD=1 VSS=0 VTHRESH=0.5
D_U5_D58         U5_N16489275 U5_N16489395 d_d1 
E_U5_ABM151         U5_N16489395 0 VALUE { {IF(V(HDRV) > 0.5, 1,0)}    }
E_U5_ABM152         U5_ISWF 0 VALUE { {IF(V(U5_N16489275) > 0.5,  
+ V(ISW),-1)}   }
R_U5_R255         U5_N16489395 U5_N16489275  28.8  
X_U10_S5    U10_LS_ON_Z 0 U10_TOFF_CAP 0 MinToff_U10_S5 
E_U10_ABM1         U10_I_VOUT 0 VALUE { V(U10_SW_REP_RC)  / 324.36k    }
R_U10_R7         0 U10_VIN_DIV  259.68k  
R_U10_R6         U10_SW_REP_RC U10_N16782235  623k  
D_U10_U15         U10_TOFF_CAP U10_N16839338 d_d1
X_U10_U20         U10_N16863003 LDRV TOFF_COMP AND2_BASIC_GEN PARAMS: VDD=1
+  VSS=0 VTHRESH=500E-3
E_U10_ABM4         U10_IMAX 0 VALUE { max((0.5129*V(VIN)-0.0214)*1e-6,0)    }
X_U10_U17         LDRV U10_LS_ON_Z INV_BASIC_GEN PARAMS: VDD=1 VSS=0
+  VTHRESH=500E-3
R_U10_R3         U10_N16782235 U10_SW_REPLICA  2.076MEG  
X_U10_U13         U10_TOFF_CAP U10_TOFF_REF U10_N16863003 COMP_BASIC_GEN
+  PARAMS: VDD=1 VSS=0 VTHRESH=0.5
E_U10_ABM3         U10_TOFF_REF 0 VALUE {
+  (V(U10_I_VIN)-(0.5*V(U10_I_VOUT)))*648.68k    }
G_U10_ABM2I4         U10_N16839301 U10_TOFF_CAP VALUE { min(V(U10_IMAX),
+  max((8.7002*V(U10_I_VOUT)-1e-7),0))    }
E_U10_ABM5         U10_SW_REPLICA 0 VALUE { V(SW)    }
C_U10_C6         0 U10_SW_REP_RC  2.5p  
C_U10_C7         0 U10_VIN_DIV  70f  
E_U10_ABM2         U10_I_VIN 0 VALUE { V(U10_VIN_DIV)  / 648.68k    }
V_U10_V3         U10_N16839338 0 3
R_U10_R2         U10_VIN_DIV VIN  1.038MEG  
X_U10_U19         U10_LS_ON_Z LDRV INV_BASIC_GEN PARAMS: VDD=1 VSS=0
+  VTHRESH=500E-3
C_U10_C8         0 U10_TOFF_CAP  1.35p  
V_U10_V2         U10_N16839301 0 3
R_U10_R5         0 U10_N16782235  519.2k  
X_U10_S4    CLIM 0 U10_N16782235 U10_SW_REP_RC MinToff_U10_S4 
.IC         V(PAUSE )=0
.ENDS TLV62569_TRANS
*$
.subckt Driver_U7_S32 1 2 3 4  
S_U7_S32         3 4 1 2 _U7_S32
RS_U7_S32         1 2 1G
.MODEL         _U7_S32 VSWITCH Roff=1e6 Ron=10m Voff=0.2 Von=0.8
.ends Driver_U7_S32
*$
.subckt Driver_U7_H2 1 2 3 4  
H_U7_H2         3 4 VH_U7_H2 -1
VH_U7_H2         1 2 0V
.ends Driver_U7_H2
*$
.subckt Driver_U7_H1 1 2 3 4  
H_U7_H1         3 4 VH_U7_H1 1
VH_U7_H1         1 2 0V
.ends Driver_U7_H1
*$
.subckt Driver_U7_S31 1 2 3 4  
S_U7_S31         3 4 1 2 _U7_S31
RS_U7_S31         1 2 1G
.MODEL         _U7_S31 VSWITCH Roff=1e6 Ron=10m Voff=0.2 Von=0.8
.ends Driver_U7_S31
*$
.subckt SoftStart_U3_S68 1 2 3 4  
S_U3_S68         3 4 1 2 _U3_S68
RS_U3_S68         1 2 1G
.MODEL         _U3_S68 VSWITCH Roff=100e6 Ron=1 Voff=0.2 Von=0.8
.ends SoftStart_U3_S68
*$
.subckt ErrorAmp_U4_S68 1 2 3 4  
S_U4_S68         3 4 1 2 _U4_S68
RS_U4_S68         1 2 1G
.MODEL         _U4_S68 VSWITCH Roff=100e6 Ron=1 Voff=0.2 Von=0.8
.ends ErrorAmp_U4_S68
*$
.subckt MinToff_U10_S5 1 2 3 4  
S_U10_S5         3 4 1 2 _U10_S5
RS_U10_S5         1 2 1G
.MODEL         _U10_S5 VSWITCH Roff=100e6 Ron=1 Voff=0.2 Von=0.8
.ends MinToff_U10_S5
*$
.subckt MinToff_U10_S4 1 2 3 4  
S_U10_S4         3 4 1 2 _U10_S4
RS_U10_S4         1 2 1G
.MODEL         _U10_S4 VSWITCH Roff=100e6 Ron=1 Voff=0.2 Von=0.8
.ends MinToff_U10_S4
*$
* PSpice Model Editor - Version 16.0.0
*$
.SUBCKT AND2_BASIC_GEN A B Y PARAMS: VDD=1 VSS=0 VTHRESH=0.5 
E_ABMGATE    YINT 0 VALUE {{IF(V(A) > {VTHRESH}  &  
+ V(B) > {VTHRESH},{VDD},{VSS})}}
RINT YINT Y 1
CINT Y 0 1n
.ENDS AND2_BASIC_GEN
*$
.SUBCKT AND3_BASIC_GEN A B C Y PARAMS: VDD=1 VSS=0 VTHRESH=0.5 
E_ABMGATE    YINT 0 VALUE {{IF(V(A) > {VTHRESH}  &  
+ V(B) > {VTHRESH} &
+ V(C) > {VTHRESH},{VDD},{VSS})}}
RINT YINT Y 1
CINT Y 0 1n
.ENDS AND3_BASIC_GEN
*$
.SUBCKT AND4_BASIC_GEN A B C D Y PARAMS: VDD=1 VSS=0 VTHRESH=0.5 
E_ABMGATE    YINT 0 VALUE {{IF(V(A) > {VTHRESH}  &  
+ V(B) > {VTHRESH} &
+ V(C) > {VTHRESH} &
+ V(D) > {VTHRESH},{VDD},{VSS})}}
RINT YINT Y 1
CINT Y 0 1n
.ENDS AND4_BASIC_GEN
*$
.SUBCKT NAND2_BASIC_GEN A B Y PARAMS: VDD=1 VSS=0 VTHRESH=0.5 
E_ABMGATE    YINT 0 VALUE {{IF(V(A) > {VTHRESH}  &  
+ V(B) > {VTHRESH},{VSS},{VDD})}}
RINT YINT Y 1
CINT Y 0 1n
.ENDS NAND2_BASIC_GEN
*$
.SUBCKT NAND3_BASIC_GEN A B C Y PARAMS: VDD=1 VSS=0 VTHRESH=0.5 
E_ABMGATE    YINT 0 VALUE {{IF(V(A) > {VTHRESH}  &  
+ V(B) > {VTHRESH} &
+ V(C) > {VTHRESH},{VSS},{VDD})}}
RINT YINT Y 1
CINT Y 0 1n
.ENDS NAND3_BASIC_GEN
*$
.SUBCKT NAND4_BASIC_GEN A B C D Y PARAMS: VDD=1 VSS=0 VTHRESH=0.5 
E_ABMGATE    YINT 0 VALUE {{IF(V(A) > {VTHRESH}  &  
+ V(B) > {VTHRESH} &
+ V(C) > {VTHRESH} &
+ V(D) > {VTHRESH},{VSS},{VDD})}}
RINT YINT Y 1
CINT Y 0 1n
.ENDS NAND4_BASIC_GEN
*$
.SUBCKT OR2_BASIC_GEN A B Y PARAMS: VDD=1 VSS=0 VTHRESH=0.5 
E_ABMGATE    YINT 0 VALUE {{IF(V(A) > {VTHRESH}  |  
+ V(B) > {VTHRESH},{VDD},{VSS})}}
RINT YINT Y 1
CINT Y 0 1n
.ENDS OR2_BASIC_GEN
*$
.SUBCKT OR3_BASIC_GEN A B C Y PARAMS: VDD=1 VSS=0 VTHRESH=0.5 
E_ABMGATE    YINT 0 VALUE {{IF(V(A) > {VTHRESH}  |  
+ V(B) > {VTHRESH} |
+ V(C) > {VTHRESH},{VDD},{VSS})}}
RINT YINT Y 1
CINT Y 0 1n
.ENDS OR3_BASIC_GEN
*$
.SUBCKT OR4_BASIC_GEN A B C D Y PARAMS: VDD=1 VSS=0 VTHRESH=0.5 
E_ABMGATE    YINT 0 VALUE {{IF(V(A) > {VTHRESH}  |  
+ V(B) > {VTHRESH} |
+ V(C) > {VTHRESH} |
+ V(D) > {VTHRESH},{VDD},{VSS})}}
RINT YINT Y 1
CINT Y 0 1n
.ENDS OR4_BASIC_GEN
*$
.SUBCKT NOR2_BASIC_GEN A B Y PARAMS: VDD=1 VSS=0 VTHRESH=0.5 
E_ABMGATE    YINT 0 VALUE {{IF(V(A) > {VTHRESH}  |  
+ V(B) > {VTHRESH},{VSS},{VDD})}}
RINT YINT Y 1
CINT Y 0 1n
.ENDS NOR2_BASIC_GEN
*$
.SUBCKT NOR3_BASIC_GEN A B C Y PARAMS: VDD=1 VSS=0 VTHRESH=0.5 
E_ABMGATE    YINT 0 VALUE {{IF(V(A) > {VTHRESH}  |  
+ V(B) > {VTHRESH} |
+ V(C) > {VTHRESH},{VSS},{VDD})}}
RINT YINT Y 1
CINT Y 0 1n
.ENDS NOR3_BASIC_GEN
*$
.SUBCKT NOR4_BASIC_GEN A B C D Y PARAMS: VDD=1 VSS=0 VTHRESH=0.5 
E_ABMGATE    YINT 0 VALUE {{IF(V(A) > {VTHRESH}  |  
+ V(B) > {VTHRESH} |
+ V(C) > {VTHRESH} |
+ V(D) > {VTHRESH},{VSS},{VDD})}}
RINT YINT Y 1
CINT Y 0 1n
.ENDS NOR4_BASIC_GEN
*$
.SUBCKT NOR5_BASIC_GEN A B C D E Y PARAMS: VDD=1 VSS=0 VTHRESH=0.5 
E_ABMGATE YINT 0 VALUE {{IF(V(A) > {VTHRESH}  |  
+ V(B) > {VTHRESH} |
+ V(C) > {VTHRESH} |
+ V(D) > {VTHRESH} |
+ V(E) > {VTHRESH},{VSS},{VDD})}}
RINT YINT Y 1
CINT Y 0 1n
.ENDS NOR5_BASIC_GEN
*$
.SUBCKT NOR6_BASIC_GEN A B C D E F Y PARAMS: VDD=1 VSS=0 VTHRESH=0.5 
E_ABMGATE YINT 0 VALUE {{IF(V(A) > {VTHRESH}  |  
+ V(B) > {VTHRESH} |
+ V(C) > {VTHRESH} |
+ V(D) > {VTHRESH} |
+ V(E) > {VTHRESH} |
+ V(F) > {VTHRESH},{VSS},{VDD})}}
RINT YINT Y 1
CINT Y 0 1n
.ENDS NOR6_BASIC_GEN
*$
.SUBCKT INV_BASIC_GEN A  Y PARAMS: VDD=1 VSS=0 VTHRESH=0.5 
E_ABMGATE    YINT 0 VALUE {{IF(V(A) > {VTHRESH} , 
+ {VSS},{VDD})}}
RINT YINT Y 1
CINT Y 0 1n
.ENDS INV_BASIC_GEN
*$
.SUBCKT XOR2_BASIC_GEN A B Y PARAMS: VDD=1 VSS=0 VTHRESH=0.5 
E_ABMGATE  YINT 0 VALUE {{IF(V(A) > {VTHRESH}  ^  
+ V(B) > {VTHRESH},{VDD},{VSS})}}
RINT YINT Y 1
CINT Y 0 1n
.ENDS XOR2_BASIC_GEN
*$
.SUBCKT XNOR2_BASIC_GEN A B Y PARAMS: VDD=1 VSS=0 VTHRESH=0.5 
E_ABMGATE  YINT 0 VALUE {{IF(V(A) > {VTHRESH}  ^  
+ V(B) > {VTHRESH},{VSS},{VDD})}}
RINT YINT Y 1
CINT Y 0 1n
.ENDS XNOR2_BASIC_GEN
*$
.SUBCKT MUX2_BASIC_GEN A B S Y PARAMS: VDD=1 VSS=0 VTHRESH=0.5 
E_ABMGATE  YINT 0 VALUE {{IF(V(S) > {VTHRESH},  
+ V(B),V(A))}}
RINT YINT Y 1
CINT Y 0 1n
.ENDS MUX2_BASIC_GEN
*$
.SUBCKT INV_DELAY_BASIC_GEN A  Y PARAMS: VDD=1 VSS=0 VTHRESH=0.5 DELAY = 10n 
E_ABMGATE1    YINT1 0 VALUE {{IF(V(A) > {VTHRESH} , 
+ {VDD},{VSS})}}
RINT YINT1 YINT2 1
CINT YINT2 0 {DELAY*1.3}
E_ABMGATE2    YINT3 0 VALUE {{IF(V(YINT2) > {VTHRESH} , 
+ {VSS},{VDD})}}
RINT2 YINT3 Y 1
CINT2 Y 0 1n
.ENDS INV_DELAY_BASIC_GEN
*$
.SUBCKT BUF_DELAY_BASIC_GEN A  Y PARAMS: VDD=1 VSS=0 VTHRESH=0.5 DELAY = 10n 
E_ABMGATE1    YINT1 0 VALUE {{IF(V(A) > {VTHRESH} , 
+ {VDD},{VSS})}}
RINT YINT1 YINT2 1
CINT YINT2 0 {DELAY*1.3}
E_ABMGATE2    YINT3 0 VALUE {{IF(V(YINT2) > {VTHRESH} , 
+ {VDD},{VSS})}}
RINT2 YINT3 Y 1
CINT2 Y 0 1n
.ENDS BUF_DELAY_BASIC_GEN
*$
.SUBCKT BUF_BASIC_GEN A  Y PARAMS: VDD=1 VSS=0 VTHRESH=0.5 
E_ABMGATE    YINT 0 VALUE {{IF(V(A) > {VTHRESH} , 
+ {VDD},{VSS})}}
RINT YINT Y 1
CINT Y 0 1n
.ENDS BUF_BASIC_GEN
*$
**Set has higher priority in this latch
.SUBCKT SRLATCHSHP_BASIC_GEN S R Q QB PARAMS: VDD=1 VSS=0 VTHRESH=0.5 
GQ 0 Qint VALUE = {IF(V(S) > {VTHRESH},5,IF(V(R)>{VTHRESH},-5, 0))}
CQint Qint 0 1n
RQint Qint 0 1000MEG
D_D10 Qint MY5 D_D1
V1 MY5 0 {VDD}
D_D11 MYVSS Qint D_D1
V2 MYVSS 0 {VSS} 
EQ Qqq 0 Qint 0 1
X3 Qqq Qqqd1 BUF_BASIC_GEN PARAMS: VDD={VDD} VSS={VSS} VTHRESH={VTHRESH}
RQq Qqqd1 Q 1
EQb Qbr 0 VALUE = {IF( V(Q) > {VTHRESH}, {VSS},{VDD})}
RQb Qbr QB 1 
Cdummy1 Q 0 1n 
Cdummy2 QB 0 1n 
.IC V(Qint) {VSS}
.ENDS SRLATCHSHP_BASIC_GEN
*$
**Reset has higher priority in this latch
.SUBCKT SRLATCHRHP_BASIC_GEN S R Q QB PARAMS: VDD=1 VSS=0 VTHRESH=0.5 
GQ 0 Qint VALUE = {IF(V(R) > {VTHRESH},-5,IF(V(S)>{VTHRESH},5, 0))}
CQint Qint 0 1n
RQint Qint 0 1000MEG
D_D10 Qint MY5 D_D1
V1 MY5 0 {VDD}
D_D11 MYVSS Qint D_D1
V2 MYVSS 0 {VSS} 
EQ Qqq 0 Qint 0 1
X3 Qqq Qqqd1 BUF_BASIC_GEN PARAMS: VDD={VDD} VSS={VSS} VTHRESH={VTHRESH}
RQq Qqqd1 Q 1
EQb Qbr 0 VALUE = {IF( V(Q) > {VTHRESH}, {VSS},{VDD})}
RQb Qbr QB 1 
Cdummy1 Q 0 1n 
Cdummy2 QB 0 1n
.IC V(Qint) {VSS}
.ENDS SRLATCHRHP_BASIC_GEN
*$
**Reset has higher priority in this latch and active low set and reset - basically NAND based SR latch
.SUBCKT SBRBLATCHRHP_BASIC_GEN SB RB Q QB PARAMS: VDD=1 VSS=0 VTHRESH=0.5 
GQ 0 Qint VALUE = {IF(V(RB) < {VTHRESH},-5,IF(V(SB) < {VTHRESH},5, 0))}
CQint Qint 0 1n
RQint Qint 0 1000MEG
D_D10 Qint MY5 D_D1
V1 MY5 0 {VDD}
D_D11 MYVSS Qint D_D1
V2 MYVSS 0 {VSS} 
EQ Qqq 0 Qint 0 1
X3 Qqq Qqqd1 BUF_BASIC_GEN PARAMS: VDD={VDD} VSS={VSS} VTHRESH={VTHRESH}
RQq Qqqd1 Q 1
EQb Qbr 0 VALUE = {IF( V(Q) > {VTHRESH}, {VSS},{VDD})}
RQb Qbr QB 1 
.IC V(Qint) {VSS}
.ENDS SBRBLATCHRHP_BASIC_GEN
*$
**Reset has higher priority in this latch and active low set and reset - basically NAND based SR latch
.SUBCKT SBRBLATCHSHP_BASIC_GEN SB RB Q QB PARAMS: VDD=1 VSS=0 VTHRESH=0.5 
GQ 0 Qint VALUE = {IF(V(SB) < {VTHRESH},5,IF(V(RB) < {VTHRESH},-5, 0))}
CQint Qint 0 1n
RQint Qint 0 1000MEG
D_D10 Qint MY5 D_D1
V1 MY5 0 {VDD}
D_D11 MYVSS Qint D_D1
V2 MYVSS 0 {VSS} 
EQ Qqq 0 Qint 0 1
X3 Qqq Qqqd1 BUF_BASIC_GEN PARAMS: VDD={VDD} VSS={VSS} VTHRESH={VTHRESH}
RQq Qqqd1 Q 1
EQb Qbr 0 VALUE = {IF( V(Q) > {VTHRESH}, {VSS},{VDD})}
RQb Qbr QB 1 
.IC V(Qint) {VSS}
.ENDS SBRBLATCHSHP_BASIC_GEN
*$
.SUBCKT DFFSBRB_SHPBASIC_GEN Q QB CLK D RB SB PARAMS: VDD=1 VSS=0 VTHRESH=0.5 
***Set has higher priority in this
** Changed the delay from 7n/10n to 15n/20n to help larger time step simulations
**Faster flip-flops require a a smaller time step to simulate
X1 CLK CLKdel INV_DELAY_BASIC_GEN PARAMS: VDD={VDD} VSS={VSS} VTHRESH={VTHRESH} DELAY = 15n
X2 CLK CLKdel CLKint AND2_BASIC_GEN PARAMS: VDD={VDD} VSS={VSS} VTHRESH={VTHRESH}
GQ 0 Qint VALUE = {IF(V(SB) < {VTHRESH},5,IF(V(RB)<{VTHRESH},-5, IF(V(CLKint)> {VTHRESH}, 
+ IF(V(D)> {VTHRESH},5,-5),0)))}
CQint Qint 0 1n
RQint Qint 0 1000MEG
D_D10 Qint MY5 D_D1
V1 MY5 0 {VDD}
D_D11 MYVSS Qint D_D1
V2 MYVSS 0 {VSS} 
EQ Qqq 0 Qint 0 1
X3 Qqq Qqqd1 BUF_DELAY_BASIC_GEN PARAMS: VDD={VDD} VSS={VSS} VTHRESH={VTHRESH} DELAY = 20n
RQq Qqqd1 Q 1
EQb Qbr 0 VALUE = {IF( V(Q) > {VTHRESH}, {VSS},{VDD})}
RQb Qbr Qb 1 
Cdummy1 Q 0 1nF 
Cdummy2 QB 0 1nF 
.IC V(Qint) {VSS}
.ENDS DFFSBRB_SHPBASIC_GEN
*$
.SUBCKT DFFSR_SHPBASIC_GEN Q QB CLK D R S PARAMS: VDD=1 VSS=0 VTHRESH=0.5 
***Set has higher priority in this
** Changed the delay from 7n/10n to 15n/20n to help larger time step simulations
**Faster flip-flops require a a smaller time step to simulate
X1 CLK CLKdel INV_DELAY_BASIC_GEN PARAMS: VDD={VDD} VSS={VSS} VTHRESH={VTHRESH} DELAY = 15n
X2 CLK CLKdel CLKint AND2_BASIC_GEN PARAMS: VDD={VDD} VSS={VSS} VTHRESH={VTHRESH} 
GQ 0 Qint VALUE = {IF(V(S) > {VTHRESH},5,IF(V(R) > {VTHRESH},-5, IF(V(CLKint)> {VTHRESH}, 
+ IF(V(D)> {VTHRESH},5,-5),0)))}
CQint Qint 0 1n
RQint Qint 0 1000MEG
D_D10 Qint MY5 D_D1
V1 MY5 0 {VDD}
D_D11 MYVSS Qint D_D1
V2 MYVSS 0 {VSS} 
EQ Qqq 0 Qint 0 1
X3 Qqq Qqqd1 BUF_DELAY_BASIC_GEN PARAMS: VDD=1 VSS=0 VTHRESH=0.5 DELAY = 20n
RQq Qqqd1 Q 1
EQb Qbr 0 VALUE = {IF( V(Q) > {VTHRESH}, {VSS},{VDD})}
RQb Qbr Qb 1 
Cdummy1 Q 0 1nF 
Cdummy2 QB 0 1nF 
.IC V(Qint) {VSS}
.ENDS DFFSR_SHPBASIC_GEN
*$

.subckt dffsbrb_rhpbasic_gen q qb clk d rb sb params: vdd=1 vss=0 vthresh=0.5

x1 clk clkdel inv_delay_basic_gen params: vdd={vdd} vss={vss} vthresh=
+ {vthresh} delay = 15n
x2 clk clkdel clkint and2_basic_gen params: vdd={vdd} vss={vss} vthresh=
+ {vthresh}
gq 0 qint value = {if(v(rb) < {vthresh},-1,if(v(sb)< {vthresh},1,
+  if(v(clkint)> {vthresh},
+ if(v(d)> {vthresh},1,-1),0)))}
cqint qint 0 1n
rqint qint 0 1000meg
d_d10 qint my5 d_d1
v1 my5 0 1
d_d11 0 qint d_d1
eq qqq 0 qint 0 1
x3 qqq qqqd1 buf_delay_basic_gen params: vdd={vdd} vss={vss} vthresh={vthresh}
+  delay = 20n
rqq qqqd1 q 1
eqb qbr 0 value = {if( v(q) > {vthresh}, {vss},{vdd})}
rqb qbr qb 1
cdummy1 q 0 1nf
cdummy2 qb 0 1nf
.ic v(qint) {vss}

.model d_d1 d
+ is=1e-015
*+ tt=1e-011
*+ rs=0.05
+ n=0.1

.ends dffsbrb_rhpbasic_gen
*$
.SUBCKT DFFSR_RHPBASIC_GEN Q QB CLK D R S PARAMS: VDD=1 VSS=0 VTHRESH=0.5 
***Set has higher priority in this
** Changed the delay from 7n/10n to 15n/20n to help larger time step simulations
**Faster flip-flops require a a smaller time step to simulate
X1 CLK CLKdel INV_DELAY_BASIC_GEN PARAMS: VDD={VDD} VSS={VSS} VTHRESH={VTHRESH} DELAY = 15n
X2 CLK CLKdel CLKint AND2_BASIC_GEN PARAMS: VDD={VDD} VSS={VSS} VTHRESH={VTHRESH}  
GQ 0 Qint VALUE = {IF(V(R) > {VTHRESH},-5,IF(V(S) > {VTHRESH},5, IF(V(CLKint)> {VTHRESH}, 
+ IF(V(D)> {VTHRESH},5,-5),0)))}
CQint Qint 0 1n
RQint Qint 0 1000MEG
D_D10 Qint MY5 D_D1
V1 MY5 0 {VDD}
D_D11 MYVSS Qint D_D1
V2 MYVSS 0 {VSS} 
EQ Qqq 0 Qint 0 1
X3 Qqq Qqqd1 BUF_DELAY_BASIC_GEN PARAMS: VDD={VDD} VSS={VSS} VTHRESH={VTHRESH} DELAY = 20n
RQq Qqqd1 Q 1
EQb Qbr 0 VALUE = {IF( V(Q) > {VTHRESH}, {VSS},{VDD})}
RQb Qbr Qb 1 
Cdummy1 Q 0 1nF 
Cdummy2 QB 0 1nF 
.IC V(Qint) {VSS}
.ENDS DFFSR_RHPBASIC_GEN
*$
* PSpice Model Editor - Version 16.0.0

*$
.SUBCKT COMP_BASIC_GEN INP INM Y PARAMS: VDD=1 VSS=0 VTHRESH=0.5	
E_ABM Yint 0 VALUE {IF (V(INP) > 
+ V(INM), {VDD},{VSS})}
R1 Yint Y 1
C1 Y 0 1n
.ENDS COMP_BASIC_GEN
*$
.SUBCKT COMPHYS_BASIC_GEN INP INM HYS OUT PARAMS: VDD=1 VSS=0 VTHRESH=0.5	
EIN INP1 INM1 INP INM 1 
EHYS INP1 INP2 VALUE { IF( V(1) > {VTHRESH},-V(HYS),0) }
EOUT OUT 0 VALUE { IF( V(INP2)>V(INM1), {VDD} ,{VSS}) }
R1 OUT 1 1
C1 1 0 5n
RINP1 INP1 0 1K
.ENDS COMPHYS_BASIC_GEN
*$
.SUBCKT COMPHYS2_BASIC_GEN INP INM HYS OUT PARAMS: VDD=1 VSS=0 VTHRESH=0.5	
+ T=10
EIN INP1 INM1 INP INM 1 
EHYS INM2 INM1 VALUE { IF( V(1) > {VTHRESH},-V(HYS)/2,V(HYS)/2) }
EOUT OUT 0 VALUE { IF( V(INP1)>V(INM2), {VDD} ,{VSS}) }
R1 OUT 1 1
C1 1 0 {T*1e-9}
RINP1 INP1 0 10K
RINM2 INM2 0 10K
.ENDS COMPHYS2_BASIC_GEN
*$
.subckt d_d 1 2
d1 1 2 dd
.model dd d
+ is=1e-015
+ n=0.01
+ tt=1e-011
.ends d_d
*$
.MODEL D_D1 D( IS=1e-15 TT=10p Rs=0.05 N=.1  )
*$
* PSpice Model Editor - Version 16.0.0
*$
*********************************************************************************************************
* PSPICE SUB-BLOCK Library
* This Library was created by Christopher Sanzo
* Notes:
*    1. The main objective of this library was to enable Verilog to PSPICE automated conversion
*    2. Each of the sub-blocks in this library has been validated
*    3. The symbol library for this PSPICE library is named MACROSALL.OLB
* Date of Release : Feb/2009
* Version History:
*    1. The DFF has been updated with a new implementation.
**********************************************************************************************************
**** AND2 *********************************************************************************************
**Basic 2input AND gate
**Outputs 1V depending on A&B > Vthreshold. The threshold is 500mV by deafult
** Propagation delay high to low, low to high, rise time, fall time, threshold, output high voltage, output low voltage are user programmable
**Observation: The implementation is a two stage implementation. The first stage inverter determines the tplh,tphl. The second stage inverter determines
**tr,tf. The tphl,tplh depends on the time taken to discharge from Vsup to Vth and similarly from some low voltage to Vth. If suppose you discharge
**from Vsup to Vth, the tplh will be proper (I am right, its tplh and not tphl because there is an inverter in front. So it would be tplh instead of tphl)  
**however if the charging turns on immediately it will cross the Vth immediately. Hence there will be a very minimum tphl. This could happen the other way too depending on the
**input signal. So the tphl and tplh are not guaranteed.
.SUBCKT AND2_PS Y A B PARAMS: vhi=1 vlo=0 vthresh=500e-3 tplh=1e-9 tphl=1e-9 tr=1e-9 tf=1e-9
RA A 0 1e11
CA A 0 0.01pF
RB B 0 1e11
CB B 0 0.01pF
VS VSUP 0 DC 1
***** boolean ************
EAND2 Ypp 0 VALUE={IF(V(A) > {vthresh} & V(B) > {vthresh}, 1, 0)}
ROUTpp Ypp 0 1e11
***** add delay lines ****
XNSW1 OUTp Ypp 0 NSW_PS PARAMS: RONval={(tplh+1e-15)/(1e-12*0.693)} VTHval=0.5
XPSW1 OUTp Ypp VSUP PSW_PS PARAMS: RONval={(tphl+1e-15)/(1e-12*0.693)} VTHval=0.5
CDEL1 OUTp 0 1pF
ETHRESH Yp 0 VALUE={IF(V(OUTp) > 0.5, 1, 0)}
ROUTp Yp 0 1e11
** add rise and fall *****
XNSW2 OUTr Yp 0 NSW_PS PARAMS: RONval={(tf+1e-15)/(1e-12*2.3)} VTHval=0.5
XPSW2 OUTr Yp VSUP PSW_PS PARAMS: RONval={(tr+1e-15)/(1e-12*2.3)} VTHval=0.5
CDEL2 OUTr 0 1pF
**************************
EOUT OUTf 0 VALUE={V(OUTr)*({vhi} - {vlo})+{vlo}}
RDR OUTf Y  1000
RO Y 0 1e11
.ENDS AND2_PS
*$
*****AND2 with supply
.SUBCKT AND2WS_PS Y A B VDD VSS PARAMS: tplh=1e-9 tphl=1e-9 tr=1e-9 tf=1e-9 relthr=0.5
RA A 0 1e11
CA A 0 0.01pF
RB B 0 1e11
CB B 0 0.01pF
VS VSUP 0 DC 1
Etemp vthresh 0 VALUE = {(V(VDD) - V(VSS)) *{relthr}}
***** boolean ************
EAND2 Ypp 0 VALUE={IF(V(A,VSS) > V(vthresh) & V(B,VSS) > V(vthresh), 1, 0)}
ROUTpp Ypp 0 1e11
***** add delay lines ****
XNSW1 OUTp Ypp 0 NSW_PS PARAMS: RONval={(tplh+1e-15)/(1e-12*0.693)} VTHval=0.5
XPSW1 OUTp Ypp VSUP PSW_PS PARAMS: RONval={(tphl+1e-15)/(1e-12*0.693)} VTHval=0.5
CDEL1 OUTp 0 1pF
ETHRESH Yp 0 VALUE={IF(V(OUTp) > 0.5, 1, 0)}
ROUTp Yp 0 1e11
** add rise and fall *****
XNSW2 OUTr Yp 0 NSW_PS PARAMS: RONval={(tf+1e-15)/(1e-12*2.3)} VTHval=0.5
XPSW2 OUTr Yp VSUP PSW_PS PARAMS: RONval={(tr+1e-15)/(1e-12*2.3)} VTHval=0.5
CDEL2 OUTr 0 1pF
**************************
EOUT OUTf 0 VALUE={(V(OUTr)*(V(VDD) - V(VSS)))}
RDR OUTf Y  1000
RO Y 0 1e11
.ENDS AND2WS_PS
*$
******
.SUBCKT DIFFERENTIATE_PS OUT IN PARAMS: INDUCT=1n
E1 OUT 0 VALUE={DDT(V(IN))*{INDUCT}}
.ENDS DIFFERENTIATE_PS
*$
******
.SUBCKT INTEGRATE_PS OUT IN PARAMS: INIT_OUT=0 GAIN=1 
E1 OUT 0 VALUE={{GAIN} * SDT(V(IN,0))+ {INIT_OUT}}
.ENDS INTEGRATE_PS
*$
**** AND3 *********************************************************************************************
**Basic 3 input AND gate
.SUBCKT AND3_PS Y A B C PARAMS: vhi=1 vlo=0 vthresh=500e-3 tplh=1e-9 tphl=1e-9 tr=1e-9 tf=1e-9
RA A 0 1e11
CA A 0 0.01pF
RB B 0 1e11
CB B 0 0.01pF
RC C 0 1e11
CC C 0 0.01pF
VS VSUP 0 DC 1
***** boolean ************
EAND3 Ypp 0 VALUE={IF(V(A) > {vthresh} & V(B) > {vthresh} & V(C) > {vthresh}, 1, 0)}
ROUTpp Ypp 0 1e11
***** add delay lines ****
XNSW1 OUTp Ypp 0 NSW_PS PARAMS: RONval={(tplh+1e-15)/(1e-12*0.693)} VTHval=0.5
XPSW1 OUTp Ypp VSUP PSW_PS PARAMS: RONval={(tphl+1e-15)/(1e-12*0.693)} VTHval=0.5
CDEL1 OUTp 0 1pF
ETHRESH Yp 0 VALUE={IF(V(OUTp) > 0.5, 1, 0)}
ROUTp Yp 0 1e11
** add rise and fall *****
XNSW2 OUTr Yp 0 NSW_PS PARAMS: RONval={(tf+1e-15)/(1e-12*2.3)} VTHval=0.5
XPSW2 OUTr Yp VSUP PSW_PS PARAMS: RONval={(tr+1e-15)/(1e-12*2.3)} VTHval=0.5
CDEL2 OUTr 0 1pF
**************************
EOUT OUTf 0 VALUE={V(OUTr)*({vhi} - {vlo})+{vlo}}
RDR OUTf Y  1000
RO Y 0 1e11
.ENDS AND3_PS
*$
.SUBCKT AND3WS_PS Y A B C VDD VSS PARAMS: tplh=1e-9 tphl=1e-9 tr=1e-9 tf=1e-9 relthr=0.5
RA A 0 1e11
CA A 0 0.01pF
RB B 0 1e11
CB B 0 0.01pF
RC C 0 1e11
CC C 0 0.01pF
VS VSUP 0 DC 1
Etemp vthresh 0 VALUE = {(V(VDD) - V(VSS)) *{relthr}}
***** boolean ************
EAND3 Ypp 0 VALUE={IF(V(A,VSS) > V(vthresh) & V(B,VSS) > V(vthresh) & V(C,VSS) > V(vthresh), 1, 0)}
ROUTpp Ypp 0 1e11
***** add delay lines ****
XNSW1 OUTp Ypp 0 NSW_PS PARAMS: RONval={(tplh+1e-15)/(1e-12*0.693)} VTHval=0.5
XPSW1 OUTp Ypp VSUP PSW_PS PARAMS: RONval={(tphl+1e-15)/(1e-12*0.693)} VTHval=0.5
CDEL1 OUTp 0 1pF
ETHRESH Yp 0 VALUE={IF(V(OUTp) > 0.5, 1, 0)}
ROUTp Yp 0 1e11
** add rise and fall *****
XNSW2 OUTr Yp 0 NSW_PS PARAMS: RONval={(tf+1e-15)/(1e-12*2.3)} VTHval=0.5
XPSW2 OUTr Yp VSUP PSW_PS PARAMS: RONval={(tr+1e-15)/(1e-12*2.3)} VTHval=0.5
CDEL2 OUTr 0 1pF
**************************
EOUT OUTf 0 VALUE={V(OUTr)*(V(VDD) - V(VSS))}
RDR OUTf Y  1000
RO Y 0 1e11
.ENDS AND3WS_PS
*$
**** AND4 *********************************************************************************************
.SUBCKT AND4_PS Y A B C D PARAMS: vhi=1 vlo=0 vthresh=500e-3 tplh=1e-9 tphl=1e-9 tr=1e-9 tf=1e-9
RA A 0 1e11
CA A 0 0.01pF
RB B 0 1e11
CB B 0 0.01pF
RC C 0 1e11
CC C 0 0.01pF
RD D 0 1e11
CD D 0 0.01pF
VS VSUP 0 DC 1
***** boolean ************
EAND4 Ypp 0 VALUE={IF(V(A) > {vthresh} & V(B) > {vthresh} & V(C) > {vthresh} & V(D) > {vthresh}, 1, 0)}
ROUTpp Ypp 0 1e11