*$
*****************************************************************************
* (C) Copyright 2019 Texas Instruments Incorporated. All rights reserved.
*****************************************************************************
** This model is designed as an aid for customers of Texas Instruments.
** TI and its licensors and suppliers make no warranties, either expressed
** or implied, with respect to this model, including the warranties of
** merchantability or fitness for a particular purpose. The model is
** provided solely on an "as is" basis. The entire risk as to its quality
** and performance is with the customer.
*****************************************************************************
*
** Released by: WEBENCH Design Center, Texas Instruments Inc.
* Part: TLV755185P
* Date: 20MAR2019
* Model Type: Transient
* Simulator: PSPICE
* Simulator Version: 16.2.0.s003
* EVM Order Number:
* EVM Users Guide:
* Datasheet:
*
* Model Version: Final 1.00
*
*****************************************************************************
*
* Updates:
*
* Final 1.00
* Release to Web
*
*****************************************************************************
* Model Usage Notes:
*
* 1. The following features have been modeled
*      a. Start-up behaviour is modeled
*      b. Line transients 
*      c. Load transients
*      d. Current Limit and current foldback is modeled
*      e. PSRR is modeled only till 1st pole and 1st Zero (Model limitation)
* 2. Quiescent current, noise characteristics and temperature effects are not modeled
*****************************************************************************
* source TLV755185P_TRANS
*$
.SUBCKT TLV755185P_TRANS EN GND VIN VOUT NC 
C_C4         0 N430499  0.7u  
E_E7         VZZ_INT 0 VALUE { V(VZZ, GND) }
R_R13         N508446 N508136  1 TC=0,0 
C_C8         0 ILIM_EN  1n  TC=0,0 
E_E9         N501262 0 VALUE { V(VXX, 0) }
C_C6         0 DISCH_A  1n  
X_S2    N430499 0 VIN N430319 TLV755185P_S2 
E_E10         N431153 GND VALUE { V(N516314, 0) }
E_ABM11         N508416 0 VALUE { if( V(VOUT1) > 1.757,1,0)    }
R_R1         VXX N430319  {RINP}  
X_S3    DISCH_B 0 N440312 0 TLV755185P_S3 
R_R3         GND FB  360k  
E_ABM1         N508352 0 VALUE { {MIN(V(N501262), (V(Vzz_INT)+(ILIM*ROUT)))}   
+  }
E_E2         I_FOLDBACK 0 TABLE { V(VOUT, 0) } 
+ ( (0,355m) (0.2,355m)(0.6,355m)(0.8,0.6)(1.5,0.7)(2.4,0.75)(3.3,0.7525) )
R_R2         V_INT VXX  {PSRR*RINP}  
C_C5         GND N430319  0.1u  
C_C1         VXX N430319  {1/(6.28*RINP*POLE)}  
C_C9         0 N508136  1n  TC=0,0 
X_S1    DISCH_A 0 N430233 VOUT TLV755185P_S1 
R_R9         N440312 VOUT  120  
E_ABM10         N508434 0 VALUE { {if( V(VOUT1) < 1.665 & V(LOAD)
+  >0.99*ILIM,1,0)}    }
E_E11         V_FBK 0 VALUE { V(FB, GND) }
R_R7         N430701 DISCH_A  10 TC=0,0 
R_R4         FB VOUT  750k  
R_R6         N431153 VYY  10 TC=0,0 
X_H2    VZZ N430233 LOAD 0 TLV755185P_H2 
R_R8         EN_OK N430499  50 TC=0,0 
R_R10         EN GND  1E6 TC=0,0 
X_U3         DISCH_A DISCH_B INV_DELAY_BASIC_GEN PARAMS: VDD=1 VSS=0
+  VTHRESH=0.5 DELAY=10n
C_C3         GND VYY  1n  
X_F1    N431149 VZZ N430319 VYY TLV755185P_F1 
E_E8         VIN_INT 0 VALUE { V(VIN, GND) }
E_ABM12         N516314 0 VALUE { if( V(ILIM_EN) >0 ,V(N508184),V(N508352))   
+  }
X_U2         N508434 N508416 N508440 N508446 SRLATCHRHP_BASIC_GEN PARAMS: VDD=1
+  VSS=0 VTHRESH=0.5
R_R12         N508440 ILIM_EN  1 TC=0,0 
E_ABM3         N430701 0 VALUE { IF(V(DISCH)>0.5,1,0)    }
E_E1         EN_INT 0 VALUE { V(EN, GND) }
R_U1_R5         U1_N08450 V_INT  10 TC=0,0 
X_U1_U14         U1_N21454 EN_OK BUF_DELAY_BASIC_GEN PARAMS: VDD=1 VSS=0
+  VTHRESH=0.5 DELAY=1n
X_U1_U12         U1_N21454 U1_N08904 D_D1
E_U1_ABM5         U1_N08482 0 VALUE { MIN(V(U1_N08110),  
+ MAX(V(VIN_INT) -V(U1_DROP), 0))   }
V_U1_V5         U1_EN_HYS 0 {EHYS}
R_U1_R6         U1_N08904 U1_N21454  288.54  
C_U1_C5         0 U1_N08530  {0.1*TTRN/0.98} IC=0 TC=0,0 
C_U1_C3         GND V_INT  1n  
C_U1_C2         0 U1_N08110  1n  
X_U1_U11         U1_N08530 U1_N08522 D_D1
E_U1_ABM10         DISCH 0 VALUE { if( V(U1_VIN_OK) > 0.5 & V(U1_N08622)
+  >0.5,1,0)    }
V_U1_V3         U1_N08864 0 40m
X_U1_U13         EN_INT U1_EN_IH U1_EN_HYS U1_N08904 COMPHYS_BASIC_GEN PARAMS:
+  VDD=1 VSS=0 VTHRESH=0.5
V_U1_V7         U1_N08522 0 0.5155
X_U1_U16         U1_N08904 U1_N08622 BUF_DELAY_BASIC_GEN PARAMS: VDD=1 VSS=0
+  VTHRESH=0.5 DELAY=10n
X_U1_U15         VIN_INT U1_N08002 U1_N08864 U1_VIN_OK COMPHYS_BASIC_GEN
+  PARAMS: VDD=1 VSS=0 VTHRESH=0.5
G_U1_ABMI1         U1_N08522 U1_N08530 VALUE { {IF(V(EN_OK)>0.5 &
+  V(U1_VIN_OK)>0.5, 0.06, 0)}    }
C_U1_C6         0 U1_N21454  1u  TC=0,0 
R_U1_R2         0 U1_N08110  1G  
E_U1_E1         U1_DROP 0 TABLE { V(LOAD, 0) } 
+ ( (500m,325m) )
V_U1_V6         U1_EN_IH 0 {VENB}
E_U1_ABM4         U1_N08364 0 VALUE { V(U1_N08530)  
+ * (ABS(V(VOUT1)) + 1e-6)  
+ / (ABS(V(V_FBK)) + 1e-6)  }
R_U1_R4         U1_N08364 U1_N08110  10 TC=0,0 
V_U1_V4         U1_N08002 0 1.3
E_U1_E12         U1_N08450 GND VALUE { V(U1_N08482, 0) }
R_R5         N431149 VYY  {ROUT}  
E_E6         VOUT1 0 VALUE { V(VOUT, GND) }
C_C2         VXX V_INT  {1/(6.28*PSRR*RINP*ZERO*1)}  
E_ABM2         N508184 0 VALUE { {MAX(V(VZZ_INT)+(V(I_FOLDBACK)*ROUT),
+  (V(Vzz_INT)+(ISC*ROUT)))}    }
.PARAM  psrr=501u isc=355m venb=1 pole2=200k ilim=720m pole=200 zero=5k
+  rinp=1e7 ttrn=350u rout=36m vref=0.6 ehys=0.7 drop=350m
.ENDS TLV755185P_TRANS
*$
.subckt TLV755185P_S2 1 2 3 4  
S_S2         3 4 1 2 _S2
RS_S2         1 2 1G
.MODEL         _S2 VSWITCH Roff=1k Ron=8 Voff=0.0V Von=0.8V
.ends TLV755185P_S2
*$
.subckt TLV755185P_S3 1 2 3 4  
S_S3         3 4 1 2 _S3
RS_S3         1 2 1G
.MODEL         _S3 VSWITCH Roff=1E9 Ron=0.1m Voff=0.2 Von=1
.ends TLV755185P_S3
*$
.subckt TLV755185P_S1 1 2 3 4  
S_S1         3 4 1 2 _S1
RS_S1         1 2 1G
.MODEL         _S1 VSWITCH Roff=1E9 Ron=1m Voff=0.2 Von=1
.ends TLV755185P_S1
*$
.subckt TLV755185P_H2 1 2 3 4  
H_H2         3 4 VH_H2 1
VH_H2         1 2 0V
.ends TLV755185P_H2
*$
.subckt TLV755185P_F1 1 2 3 4  
F_F1         3 4 VF_F1 1
VF_F1         1 2 0V
.ends TLV755185P_F1
*$
*$
.SUBCKT COMPHYS_BASIC_GEN INP INM HYS OUT PARAMS: VDD=1 VSS=0 VTHRESH=0.5	
EIN INP1 INM1 INP INM 1 
EHYS INP1 INP2 VALUE { IF( V(1) > {VTHRESH},-V(HYS),0) }
EOUT OUT 0 VALUE { IF( V(INP2)>V(INM1), {VDD} ,{VSS}) }
R1 OUT 1 1
C1 1 0 5n
RINP1 INP1 0 1K
.ENDS COMPHYS_BASIC_GEN
*$
.SUBCKT D_D1 1 2
D1 1 2 DD1
.MODEL DD1 D( IS=1e-15 TT=10p Rs=0.05 N=.1  )
.ENDS D_D1
*$
.SUBCKT BUF_DELAY_BASIC_GEN A  Y PARAMS: VDD=1 VSS=0 VTHRESH=0.5 DELAY = 10n 
E_ABMGATE1    YINT1 0 VALUE {{IF(V(A) > {VTHRESH} , 
+ {VDD},{VSS})}}
RINT YINT1 YINT2 1
CINT YINT2 0 {DELAY*1.3}
E_ABMGATE2    YINT3 0 VALUE {{IF(V(YINT2) > {VTHRESH} , 
+ {VDD},{VSS})}}
RINT2 YINT3 Y 1
CINT2 Y 0 1n
.ENDS BUF_DELAY_BASIC_GEN
*$
.SUBCKT AND2_BASIC_GEN A B Y PARAMS: VDD=1 VSS=0 VTHRESH=0.5 
E_ABMGATE    YINT 0 VALUE {{IF(V(A) > {VTHRESH}  &  
+ V(B) > {VTHRESH},{VDD},{VSS})}}
RINT YINT Y 1
CINT Y 0 1n
.ENDS AND2_BASIC_GEN

*$
.SUBCKT SRLATCHRHP_BASIC_GEN S R Q QB PARAMS: VDD=1 VSS=0 VTHRESH=0.5  
GQ 0 Qint VALUE = {IF(V(R) > {VTHRESH},-5,IF(V(S)>{VTHRESH},5, 0))} 
CQint Qint 0 1n 
RQint Qint 0 1000MEG 
D_D10 Qint MY5 D_D1 
V1 MY5 0 {VDD} 
D_D11 MYVSS Qint D_D1 
V2 MYVSS 0 {VSS}  
EQ Qqq 0 Qint 0 1 
X3 Qqq Qqqd1 BUF_BASIC_GEN PARAMS: VDD={VDD} VSS={VSS} VTHRESH={VTHRESH} 
RQq Qqqd1 Q 1 
EQb Qbr 0 VALUE = {IF( V(Q) > {VTHRESH}, {VSS},{VDD})} 
RQb Qbr QB 1  
Cdummy1 Q 0 1n  
Cdummy2 QB 0 1n 
.IC V(Qint) {VSS} 
.MODEL D_D1 D( IS=1e-15 TT=10p Rs=0.05 N=.1 ) 
.ENDS SRLATCHRHP_BASIC_GEN 
*$
.SUBCKT BUF_BASIC_GEN A  Y PARAMS: VDD=1 VSS=0 VTHRESH=0.5  
E_ABMGATE    YINT 0 VALUE {{IF(V(A) > {VTHRESH} ,{VDD},{VSS})}} 
RINT YINT Y 1 
CINT Y 0 1n 
.ENDS BUF_BASIC_GEN 
*$
.SUBCKT INV_DELAY_BASIC_GEN A  Y PARAMS: VDD=1 VSS=0 VTHRESH=0.5 DELAY = 10n  
E_ABMGATE1    YINT1 0 VALUE {{IF(V(A) > {VTHRESH} ,{VDD},{VSS})}} 
RINT YINT1 YINT2 1 
CINT YINT2 0 {DELAY*1.443} 
E_ABMGATE2    YINT3 0 VALUE {{IF(V(YINT2) > {VTHRESH} ,{VSS},{VDD})}} 
RINT2 YINT3 Y 1 
CINT2 Y 0 1n 
.ENDS INV_DELAY_BASIC_GEN 
*$