.SUBCKT TMUX6201 S1 NC GND VDD NC SEL1 VSS D1 
*Supply currents
X_U1    VDD GND I_VDD
X_U2    VSS GND I_VSS
*I/O diodes
X_U3    VSS S1 ESD_diode
X_U4    S1 VDD ESD_diode
X_U5    VSS D1 ESD_diode
X_U6    D1 VDD ESD_diode
*Comparators (VIH/VIL)
X_U7    VDD_L VDD VDD_NL GND COMPARATOR_VDD
X_U8    SEL1_L SEL1 SEL1_NL GND COMPARATOR_SEL1
*Input delays
X_U9    VDD_NL VDD GND VDD_L Delay_VDD
R1    VDD_L  GND    50
X_U10    SEL1_NL VDD GND SEL1_L Delay_SEL1
R2    SEL1_L  GND    50
*LOGIC
X_U11    VDD_L SEL1_L SW_S1_L SW_D1_L SW_S1D1_L GND LOGIC
*Output delays
X_U12    SW_S1_L VDD GND SW_S1 Delay_SW_S1
X_U13    SW_D1_L VDD GND SW_D1 Delay_SW_D1
X_U14    SW_S1D1_L VDD GND SW_S1D1 Delay_SW_S1D1
*Switch I/O (COFF, CON, ION, IOFF, BW)
X_U15    D1 VDD VSS SW_D1 GND D1_IO
X_U16    S1 VDD VSS SW_S1 GND S1_IO
*Switch blocks (Ron, OISO)
X_U17    S1 D1 VDD VSS GND SW_S1D1 SWITCH_S1
*switch to switch capacitance (XTALK)
*Charge injection blocks (Qc)
X_U18    S1 VDD VSS D1 SW_S1D1 GND GND QC_S1
.ENDS TMUX6201 
*$
*These circuits add a series diode that simulates an ESD diode from IN (-) to OUT (+)
*This diode will not cause a failure when IN > OUT but may show a large increase in current consumption 
*$
.SUBCKT ESD_Diode IN OUT
*
.MODEL DCLAMP D(IS=1E-15 IBV=1E-13 ISR = 1E-15)
D1 IN OUT DCLAMP
*
.ENDS
*$
*These circuits add a parallel current source/sink to simulate supply current consumption, based on the table
*
.SUBCKT I_VSS VSS GND
*
EI_VSS NVSS GND TABLE {V(VSS,GND)} = 
+ (-15,-7e-06)
+ (-5,-5e-06)
+ (0,0.0)
*
GVSS VSS GND VALUE = {(V(NVSS)+1p)}
*
.ENDS
.SUBCKT I_VDD VDD GND
*
EI_VDD NVDD GND TABLE {V(VDD,GND)} = 
+ (0,0.0)
+ (12,1.5e-05)
+ (36,3e-05)
*
GVDD VDD GND VALUE = {(V(NVDD)+1p)}
*
.ENDS
*
*These circuits compare the current state and the input voltage to find the new state
*if the current state is on (1) then we will change states if VIN goes below VIL (1 to 0)
*if the current state is on (0) then we will change states if VIN goes above VIH (0 to 1)
.SUBCKT COMPARATOR_VDD  STATE VIN NEWSTATE GND
EVIH VIH GND TABLE {V(VIN,GND)} = 
+ (0,0)
+ (4.399,0)
+ (4.4,1)
EVIL VIL GND TABLE {V(VIN,GND)} = 
+ (0,0)
+ (4.499,0)
+ (4.5,1)
EOUT NEWSTATE GND VALUE = { IF (V(STATE, GND)>0.63, V(VIH,GND), V(VIL,GND) ) }
.ENDS
*$
.SUBCKT COMPARATOR_SEL1  STATE VIN NEWSTATE GND
EVIH VIH GND TABLE {V(VIN,GND)} = 
+ (0,0)
+ (0.799,0)
+ (0.8,1)
EVIL VIL GND TABLE {V(VIN,GND)} = 
+ (0,0)
+ (1.2990000000000002,0)
+ (1.3,1)
EOUT NEWSTATE GND VALUE = { IF (V(STATE, GND)>0.63, V(VIH,GND), V(VIL,GND) ) }
.ENDS
*$
*These circuits handle all the logic for the device
*this does NOT handle timing delays or VIH VIL, all signals here are 1/0 logic
*VDD SEL1    SW_S1 SW_D1 SW_S1D1 
*1   0       0     0     0       
*1   1       1     1     1       
*$
.SUBCKT LOGIC  LVDD LSEL1 SW_S1 SW_D1 SW_S1D1 GND
*
*convert analog RC to 1/0 digital
ELVDD_DIG LVDD_DIG GND VALUE = {IF (V(LVDD,GND)>0.63,1, 0) }
ELSEL1_DIG LSEL1_DIG GND VALUE = {IF (V(LSEL1,GND)>0.63,1, 0) }
*Create an inverse of all inputs in case they need to be used
ELVDD_DIGN LVDD_DIGN GND VALUE = { 1 - V(LVDD_DIG, GND)}
ELSEL1_DIGN LSEL1_DIGN GND VALUE = { 1 - V(LSEL1_DIG, GND)}
*
*Determine output states and rectify outputs
ELSW_S1 LSW_S1 GND VALUE = { V(LVDD_DIG,GND) * V(LSEL1_DIG,GND) }
ESW_S1 SW_S1 GND VALUE = { IF (V(LSW_S1, GND)>0.5,1,0) }
ELSW_D1 LSW_D1 GND VALUE = { V(LVDD_DIG,GND) * V(LSEL1_DIG,GND) }
ESW_D1 SW_D1 GND VALUE = { IF (V(LSW_D1, GND)>0.5,1,0) }
ELSW_S1D1 LSW_S1D1 GND VALUE = { V(LVDD_DIG,GND) * V(LSEL1_DIG,GND) }
ESW_S1D1 SW_S1D1 GND VALUE = { IF (V(LSW_S1D1, GND)>0.5,1,0) }
*
.ENDS
*$
*These circuits add a RC delay in series to the In and OUT signal
*split delays depending on if IN is going high to low or low to high
*if IN is going high to low, the R needs to be adjusted by /0.46471 to convert the 0.37% time to 0.63%
*TON_TOFF_SUPPLY
.SUBCKT Delay_VDD  IN VDD GND OUT
*
C1 OUT_ONDLY GND 1e-09
ERON NRON GND TABLE {V(VDD,GND)} =
+ (5,190000.0)
+ (12,190000.0)
+ (15,190000.0)
+ (36,170000.0)
R1 OUT_ONDLY IN 10e9
GRON OUT_ONDLY IN VALUE = {V(OUT_ONDLY,IN)/V(NRON)}
*
EOUT_ONREC OUT_ONREC GND VALUE = { V(OUT_ONDLY, GND)}
*
S_ON OUT_ONREC OUT IN GND  SWON
.MODEL SWON VSWITCH Roff=1e9 Ron=0.001 Voff=0.37V Von=0.63V
*
C2 OUT_OFFDLY GND 1e-09
EROFF NROFF GND TABLE {V(VDD,GND)} =
+ (5,408860.2466)
+ (12,408860.2466)
+ (15,408860.2466)
+ (36,365822.3259)
R2 OUT_OFFDLY IN 10e9
GROFF OUT_OFFDLY IN VALUE = {V(OUT_OFFDLY,IN)/V(NROFF)}
*
EOUT_OFFREC OUT_OFFREC GND VALUE = { V(OUT_OFFDLY, GND)}
*
S_OFF OUT_OFFREC OUT IN GND  SWOFF
.MODEL SWOFF VSWITCH Roff=1e9 Ron=0.001 Voff=0.63V Von=0.37V
*
.ENDS
*
*TON_TOFF_EN
.SUBCKT Delay_SEL1  IN VDD GND OUT
*
C1 OUT_ONDLY GND 1e-09
ERON NRON GND TABLE {V(VDD,GND)} =
+ (5,220.0)
+ (12,170.0)
+ (15,100.0)
+ (36,110.0)
R1 OUT_ONDLY IN 10e9
GRON OUT_ONDLY IN VALUE = {V(OUT_ONDLY,IN)/V(NRON)}
*
EOUT_ONREC OUT_ONREC GND VALUE = { V(OUT_ONDLY, GND)}
*
S_ON OUT_ONREC OUT IN GND  SWON
.MODEL SWON VSWITCH Roff=1e9 Ron=0.001 Voff=0.37V Von=0.63V
*
C2 OUT_OFFDLY GND 1e-09
EROFF NROFF GND TABLE {V(VDD,GND)} =
+ (5,451.8982)
+ (12,279.7465)
+ (15,172.1517)
+ (36,215.1896)
R2 OUT_OFFDLY IN 10e9
GROFF OUT_OFFDLY IN VALUE = {V(OUT_OFFDLY,IN)/V(NROFF)}
*
EOUT_OFFREC OUT_OFFREC GND VALUE = { V(OUT_OFFDLY, GND)}
*
S_OFF OUT_OFFREC OUT IN GND  SWOFF
.MODEL SWOFF VSWITCH Roff=1e9 Ron=0.001 Voff=0.63V Von=0.37V
*
.ENDS
*
*BUFFER
.SUBCKT Delay_SW_D1  IN VDD GND OUT
*
C1 OUT_ONDLY GND 1e-09
ERON NRON GND TABLE {V(VDD,GND)} =
+ (5,10.0)
+ (12,10.0)
+ (15,10.0)
+ (36,10.0)
R1 OUT_ONDLY IN 10e9
GRON OUT_ONDLY IN VALUE = {V(OUT_ONDLY,IN)/V(NRON)}
*
EOUT_ONREC OUT_ONREC GND VALUE = { V(OUT_ONDLY, GND)}
*
S_ON OUT_ONREC OUT IN GND  SWON
.MODEL SWON VSWITCH Roff=1e9 Ron=0.001 Voff=0.37V Von=0.63V
*
C2 OUT_OFFDLY GND 1e-09
EROFF NROFF GND TABLE {V(VDD,GND)} =
+ (5,21.519)
+ (12,21.519)
+ (15,21.519)
+ (36,21.519)
R2 OUT_OFFDLY IN 10e9
GROFF OUT_OFFDLY IN VALUE = {V(OUT_OFFDLY,IN)/V(NROFF)}
*
EOUT_OFFREC OUT_OFFREC GND VALUE = { V(OUT_OFFDLY, GND)}
*
S_OFF OUT_OFFREC OUT IN GND  SWOFF
.MODEL SWOFF VSWITCH Roff=1e9 Ron=0.001 Voff=0.63V Von=0.37V
*
.ENDS
*
.SUBCKT SWITCH_S1 SX DX VDD VSS GND SWx
*
.PARAM Ron_offset = 0
*
*Cap S to D
**see documentation for CTHRU calculation based on OISO
CTHRU SX DX 5.032933918669138e-12
*
*ONOFF switches
S_ON DX DX_SWON SWx GND  SWON
.MODEL SWON VSWITCH Roff=1e9 Ron=0.001 Voff=0.37V Von=0.63V
*
*Ron tables
ERON_P5p0m5p0 NRON_P5p0m5p0 GND TABLE {V(SX,GND)} = 
+ (-5.0,4.684237439)
+ (-4.9,4.708558039)
+ (-4.8,4.73327708)
+ (-4.7,4.758383478)
+ (-4.6,4.784200553)
+ (-4.5,4.810354945)
+ (-4.4,4.836904109)
+ (-4.3,4.864031379)
+ (-4.2,4.891535531)
+ (-4.1,4.919566627)
+ (-4.0,4.94805846)
+ (-3.9,4.975998636)
+ (-3.8,5.001205511)
+ (-3.7,5.019267267)
+ (-3.6,5.027420533)
+ (-3.5,5.023739717)
+ (-3.4,5.00718134)
+ (-3.3,4.979160652)
+ (-3.2,4.941674315)
+ (-3.1,4.897192746)
+ (-3.0,4.848436972)
+ (-2.9,4.798070419)
+ (-2.8,4.747531214)
+ (-2.7,4.698197361)
+ (-2.6,4.65021266)
+ (-2.5,4.604438634)
+ (-2.4,4.561098199)
+ (-2.3,4.520004723)
+ (-2.2,4.481533061)
+ (-2.1,4.445259636)
+ (-2.0,4.41101538)
+ (-1.9,4.379078909)
+ (-1.8,4.349280547)
+ (-1.7,4.321261645)
+ (-1.6,4.295142256)
+ (-1.5,4.27060432)
+ (-1.4,4.247811271)
+ (-1.3,4.226460426)
+ (-1.2,4.206771009)
+ (-1.1,4.188395017)
+ (-1.0,4.171178724)
+ (-0.9,4.155491254)
+ (-0.8,4.140855741)
+ (-0.7,4.127482336)
+ (-0.6,4.115254623)
+ (-0.5,4.10415495)
+ (-0.4,4.093936894)
+ (-0.3,4.084857726)
+ (-0.2,4.076878439)
+ (-0.1,4.069738477)
+ (0.0,4.063819225)
+ (0.1,4.059002757)
+ (0.2,4.054811042)
+ (0.3,4.051814014)
+ (0.4,4.049841201)
+ (0.5,4.048766068)
+ (0.6,4.048869335)
+ (0.7,4.04988748)
+ (0.8,4.051852595)
+ (0.9,4.055105743)
+ (1.0,4.059294604)
+ (1.1,4.064464267)
+ (1.2,4.071090384)
+ (1.3,4.078785198)
+ (1.4,4.08764916)
+ (1.5,4.097685038)
+ (1.6,4.109535782)
+ (1.7,4.122709597)
+ (1.8,4.13742937)
+ (1.9,4.153865396)
+ (2.0,4.172142929)
+ (2.1,4.192541708)
+ (2.2,4.214832784)
+ (2.3,4.239825665)
+ (2.4,4.267442156)
+ (2.5,4.297844524)
+ (2.6,4.331729766)
+ (2.7,4.369156627)
+ (2.8,4.411208484)
+ (2.9,4.458371065)
+ (3.0,4.511447703)
+ (3.1,4.571340015)
+ (3.2,4.639869005)
+ (3.3,4.718883684)
+ (3.4,4.810627296)
+ (3.5,4.918961284)
+ (3.6,5.047224144)
+ (3.7,5.195951911)
+ (3.8,5.349272333)
+ (3.9,5.45725242)
+ (4.0,5.483083792)
+ (4.1,5.459049367)
+ (4.2,5.420576113)
+ (4.3,5.380323904)
+ (4.4,5.34022832)
+ (4.5,5.301190808)
+ (4.6,5.262711154)
+ (4.7,5.225401208)
+ (4.8,5.188661115)
+ (4.9,5.152497245)
+ (5.0,5.117666391)
ERON_P10p0m10p0 NRON_P10p0m10p0 GND TABLE {V(SX,GND)} = 
+ (-10.0,3.355893981)
+ (-9.9,3.363578234)
+ (-9.8,3.371961567)
+ (-9.7,3.37914366)
+ (-9.6,3.387175665)
+ (-9.5,3.394749371)
+ (-9.4,3.402238733)
+ (-9.3,3.41013253)
+ (-9.2,3.418194425)
+ (-9.1,3.42635308)
+ (-9.0,3.433604563)
+ (-8.9,3.441611599)
+ (-8.8,3.445470835)
+ (-8.7,3.435873412)
+ (-8.6,3.403928013)
+ (-8.5,3.356514865)
+ (-8.4,3.308014219)
+ (-8.3,3.260113378)
+ (-8.2,3.216176387)
+ (-8.1,3.175352899)
+ (-8.0,3.137293122)
+ (-7.9,3.102876493)
+ (-7.8,3.070190958)
+ (-7.7,3.039794813)
+ (-7.6,3.011716265)
+ (-7.5,2.984083611)
+ (-7.4,2.959117293)
+ (-7.3,2.935128925)
+ (-7.2,2.912898739)
+ (-7.1,2.891353371)
+ (-7.0,2.871733405)
+ (-6.9,2.851889983)
+ (-6.8,2.833638988)
+ (-6.7,2.816475924)
+ (-6.6,2.799480228)
+ (-6.5,2.783797411)
+ (-6.4,2.767821231)
+ (-6.3,2.752988826)
+ (-6.2,2.739400192)
+ (-6.1,2.726522814)
+ (-6.0,2.712569593)
+ (-5.9,2.700878889)
+ (-5.8,2.68904896)
+ (-5.7,2.677190962)
+ (-5.6,2.66572381)
+ (-5.5,2.65502421)
+ (-5.4,2.645063918)
+ (-5.3,2.635076358)
+ (-5.2,2.625074412)
+ (-5.1,2.615616858)
+ (-5.0,2.607080661)
+ (-4.9,2.598013708)
+ (-4.8,2.590986012)
+ (-4.7,2.582212126)
+ (-4.6,2.574276539)
+ (-4.5,2.567834557)
+ (-4.4,2.559745264)
+ (-4.3,2.553695049)
+ (-4.2,2.54634468)
+ (-4.1,2.538981026)
+ (-4.0,2.533445994)
+ (-3.9,2.527199506)
+ (-3.8,2.521524983)
+ (-3.7,2.515711243)
+ (-3.6,2.510064349)
+ (-3.5,2.503678129)
+ (-3.4,2.499302175)
+ (-3.3,2.493878083)
+ (-3.2,2.489740454)
+ (-3.1,2.484721791)
+ (-3.0,2.48049899)
+ (-2.9,2.475118226)
+ (-2.8,2.471062819)
+ (-2.7,2.467580124)
+ (-2.6,2.46339899)
+ (-2.5,2.459148544)
+ (-2.4,2.455888891)
+ (-2.3,2.451792631)
+ (-2.2,2.448895858)
+ (-2.1,2.445510578)
+ (-2.0,2.441650528)
+ (-1.9,2.439228809)
+ (-1.8,2.43602512)
+ (-1.7,2.433770398)
+ (-1.6,2.43116726)
+ (-1.5,2.428913463)
+ (-1.4,2.426211857)
+ (-1.3,2.423733999)
+ (-1.2,2.421773324)
+ (-1.1,2.419170341)
+ (-1.0,2.41651033)
+ (-0.9,2.415135586)
+ (-0.8,2.412490065)
+ (-0.7,2.411059441)
+ (-0.6,2.41003326)
+ (-0.5,2.408533317)
+ (-0.4,2.406669258)
+ (-0.3,2.405614925)
+ (-0.2,2.403822275)
+ (-0.1,2.401847131)
+ (0.0,2.400932087)
+ (0.1,2.400380337)
+ (0.2,2.399591847)
+ (0.3,2.399292082)
+ (0.4,2.398963639)
+ (0.5,2.398287056)
+ (0.6,2.397051922)
+ (0.7,2.396486213)
+ (0.8,2.396214771)
+ (0.9,2.395592912)
+ (1.0,2.395320832)
+ (1.1,2.395718996)
+ (1.2,2.395557488)
+ (1.3,2.39594219)
+ (1.4,2.395502205)
+ (1.5,2.395802231)
+ (1.6,2.395837476)
+ (1.7,2.396695536)
+ (1.8,2.39714979)
+ (1.9,2.398078578)
+ (2.0,2.399466865)
+ (2.1,2.399809132)
+ (2.2,2.400346444)
+ (2.3,2.401190332)
+ (2.4,2.402650026)
+ (2.5,2.404275872)
+ (2.6,2.405260193)
+ (2.7,2.407011936)
+ (2.8,2.408540625)
+ (2.9,2.409608083)
+ (3.0,2.411025159)
+ (3.1,2.413838198)
+ (3.2,2.415827674)
+ (3.3,2.417565011)
+ (3.4,2.420168886)
+ (3.5,2.422227773)
+ (3.6,2.424440603)
+ (3.7,2.42736499)
+ (3.8,2.42940991)
+ (3.9,2.431859817)
+ (4.0,2.434964926)
+ (4.1,2.438420449)
+ (4.2,2.441302736)
+ (4.3,2.445651294)
+ (4.4,2.449483565)
+ (4.5,2.452910358)
+ (4.6,2.45676994)
+ (4.7,2.460085769)
+ (4.8,2.464265311)
+ (4.9,2.469340208)
+ (5.0,2.474679506)
+ (5.1,2.478930323)
+ (5.2,2.483683442)
+ (5.3,2.489050621)
+ (5.4,2.494389826)
+ (5.5,2.499646166)
+ (5.6,2.505808185)
+ (5.7,2.512446061)
+ (5.8,2.519139891)
+ (5.9,2.526377533)
+ (6.0,2.533322685)
+ (6.1,2.540769453)
+ (6.2,2.547938268)
+ (6.3,2.557590968)
+ (6.4,2.566070344)
+ (6.5,2.574327572)
+ (6.6,2.584148258)
+ (6.7,2.59466606)
+ (6.8,2.604556991)
+ (6.9,2.616261938)
+ (7.0,2.627658679)
+ (7.1,2.640383324)
+ (7.2,2.65331577)
+ (7.3,2.668972523)
+ (7.4,2.683593615)
+ (7.5,2.700198279)
+ (7.6,2.717165148)
+ (7.7,2.735962282)
+ (7.8,2.756432884)
+ (7.9,2.778048542)
+ (8.0,2.802693701)
+ (8.1,2.828581159)
+ (8.2,2.858348971)
+ (8.3,2.890560465)
+ (8.4,2.927558616)
+ (8.5,2.97007172)
+ (8.6,3.018852302)
+ (8.7,3.07309141)
+ (8.8,3.127832159)
+ (8.9,3.167818927)
+ (9.0,3.180751901)
+ (9.1,3.179013297)
+ (9.2,3.171943003)
+ (9.3,3.164607005)
+ (9.4,3.157899919)
+ (9.5,3.149867015)
+ (9.6,3.143369066)
+ (9.7,3.136354132)
+ (9.8,3.128768334)
+ (9.9,3.122632502)
+ (10.0,3.116343164)
ERON_P12p0m12p0 NRON_P12p0m12p0 GND TABLE {V(SX,GND)} = 
+ (-12.0,3.07282664)
+ (-11.9,3.078054832)
+ (-11.8,3.083241012)
+ (-11.7,3.089098616)
+ (-11.6,3.094089054)
+ (-11.5,3.099791276)
+ (-11.4,3.105605679)
+ (-11.3,3.111015135)
+ (-11.2,3.117806726)
+ (-11.1,3.122574188)
+ (-11.0,3.128765521)
+ (-10.9,3.13471917)
+ (-10.8,3.136666977)
+ (-10.7,3.130238128)
+ (-10.6,3.103262942)
+ (-10.5,3.063345897)
+ (-10.4,3.021879232)
+ (-10.3,2.980609401)
+ (-10.2,2.943595642)
+ (-10.1,2.908704816)
+ (-10.0,2.876339564)
+ (-9.9,2.845301398)
+ (-9.8,2.81801798)
+ (-9.7,2.792130663)
+ (-9.6,2.766983285)
+ (-9.5,2.743329456)
+ (-9.4,2.72076386)
+ (-9.3,2.700418471)
+ (-9.2,2.680686885)
+ (-9.1,2.661319018)
+ (-9.0,2.644058062)
+ (-8.9,2.627161776)
+ (-8.8,2.610276915)
+ (-8.7,2.594356841)
+ (-8.6,2.579733934)
+ (-8.5,2.565656126)
+ (-8.4,2.551326687)
+ (-8.3,2.537989815)
+ (-8.2,2.525809893)
+ (-8.1,2.512919282)
+ (-8.0,2.501367459)
+ (-7.9,2.489830569)
+ (-7.8,2.478488389)
+ (-7.7,2.467677323)
+ (-7.6,2.457968464)
+ (-7.5,2.447883802)
+ (-7.4,2.439612125)
+ (-7.3,2.429932163)
+ (-7.2,2.421493427)
+ (-7.1,2.413307317)
+ (-7.0,2.404910511)
+ (-6.9,2.396486376)
+ (-6.8,2.389416486)
+ (-6.7,2.380783333)
+ (-6.6,2.372846936)
+ (-6.5,2.367215042)
+ (-6.4,2.359195296)
+ (-6.3,2.352613599)
+ (-6.2,2.346673741)
+ (-6.1,2.34120903)
+ (-6.0,2.33472559)
+ (-5.9,2.328925491)
+ (-5.8,2.323055888)
+ (-5.7,2.316851708)
+ (-5.6,2.312140466)
+ (-5.5,2.306382155)
+ (-5.4,2.301727229)
+ (-5.3,2.296178201)
+ (-5.2,2.291313505)
+ (-5.1,2.286672867)
+ (-5.0,2.282171508)
+ (-4.9,2.277976187)
+ (-4.8,2.273306689)
+ (-4.7,2.269699474)
+ (-4.6,2.265671737)
+ (-4.5,2.26258038)
+ (-4.4,2.257604094)
+ (-4.3,2.253633019)
+ (-4.2,2.249884992)
+ (-4.1,2.247016303)
+ (-4.0,2.243309644)
+ (-3.9,2.240106686)
+ (-3.8,2.236889811)
+ (-3.7,2.233546343)
+ (-3.6,2.230748678)
+ (-3.5,2.2273913)
+ (-3.4,2.224369536)
+ (-3.3,2.222198803)
+ (-3.2,2.219441575)
+ (-3.1,2.217062447)
+ (-3.0,2.213942847)
+ (-2.9,2.210864465)
+ (-2.8,2.208778361)
+ (-2.7,2.20666326)
+ (-2.6,2.203836949)
+ (-2.5,2.201555279)
+ (-2.4,2.199398862)
+ (-2.3,2.197157813)
+ (-2.2,2.196244544)
+ (-2.1,2.193529455)
+ (-2.0,2.191819252)
+ (-1.9,2.190626923)
+ (-1.8,2.189712434)
+ (-1.7,2.186662344)
+ (-1.6,2.184799268)
+ (-1.5,2.183648585)
+ (-1.4,2.182343231)
+ (-1.3,2.180731069)
+ (-1.2,2.179090527)
+ (-1.1,2.178595726)
+ (-1.0,2.176815957)
+ (-0.9,2.175748242)
+ (-0.8,2.174331719)
+ (-0.7,2.174185523)
+ (-0.6,2.173355159)
+ (-0.5,2.171267969)
+ (-0.4,2.170661524)
+ (-0.3,2.170138536)
+ (-0.2,2.168749539)
+ (-0.1,2.168966932)
+ (0.0,2.167354582)
+ (0.1,2.166426013)
+ (0.2,2.166238059)
+ (0.3,2.165603455)
+ (0.4,2.165471019)
+ (0.5,2.16564554)
+ (0.6,2.164954714)
+ (0.7,2.164780376)
+ (0.8,2.163950493)
+ (0.9,2.163915889)
+ (1.0,2.163405935)
+ (1.1,2.163832168)
+ (1.2,2.163308575)
+ (1.3,2.16376269)
+ (1.4,2.164091809)
+ (1.5,2.163721931)
+ (1.6,2.16273726)
+ (1.7,2.164002221)
+ (1.8,2.164092807)
+ (1.9,2.164755512)
+ (2.0,2.164818848)
+ (2.1,2.165998957)
+ (2.2,2.16592209)
+ (2.3,2.166892877)
+ (2.4,2.167402628)
+ (2.5,2.167297849)
+ (2.6,2.168589421)
+ (2.7,2.169280944)
+ (2.8,2.170237481)
+ (2.9,2.170858581)
+ (3.0,2.171285544)
+ (3.1,2.172786404)
+ (3.2,2.173434959)
+ (3.3,2.174796007)
+ (3.4,2.175473428)
+ (3.5,2.176988267)
+ (3.6,2.178642871)
+ (3.7,2.179515945)
+ (3.8,2.180932564)
+ (3.9,2.182726854)
+ (4.0,2.183850192)
+ (4.1,2.185923668)
+ (4.2,2.186769125)
+ (4.3,2.189540845)
+ (4.4,2.191487778)
+ (4.5,2.193100544)
+ (4.6,2.194210736)
+ (4.7,2.196506702)
+ (4.8,2.19932019)
+ (4.9,2.201491621)
+ (5.0,2.203982972)
+ (5.1,2.205693109)
+ (5.2,2.208311301)
+ (5.3,2.211221627)
+ (5.4,2.213546123)
+ (5.5,2.216289118)
+ (5.6,2.219172629)
+ (5.7,2.222153039)
+ (5.8,2.225259462)
+ (5.9,2.228477126)
+ (6.0,2.230982968)
+ (6.1,2.234982661)
+ (6.2,2.238354241)
+ (6.3,2.242298403)
+ (6.4,2.245934806)
+ (6.5,2.25067437)
+ (6.6,2.254045972)
+ (6.7,2.258003205)
+ (6.8,2.262450465)
+ (6.9,2.266784232)
+ (7.0,2.270909501)
+ (7.1,2.275802049)
+ (7.2,2.280737991)
+ (7.3,2.286202495)
+ (7.4,2.29129189)
+ (7.5,2.296309846)
+ (7.6,2.302110457)
+ (7.7,2.308162285)
+ (7.8,2.315177356)
+ (7.9,2.32103343)
+ (8.0,2.327643448)
+ (8.1,2.334588517)
+ (8.2,2.34234286)
+ (8.3,2.350391404)
+ (8.4,2.357810785)
+ (8.5,2.367101913)
+ (8.6,2.375819053)
+ (8.7,2.384954879)
+ (8.8,2.393965907)
+ (8.9,2.404583723)
+ (9.0,2.415199334)
+ (9.1,2.426276528)
+ (9.2,2.439125256)
+ (9.3,2.451348518)
+ (9.4,2.463918962)
+ (9.5,2.479420918)
+ (9.6,2.494824938)
+ (9.7,2.510356177)
+ (9.8,2.528537871)
+ (9.9,2.548479554)
+ (10.0,2.568643942)
+ (10.1,2.591977734)
+ (10.2,2.616650276)
+ (10.3,2.646503844)
+ (10.4,2.677696215)
+ (10.5,2.713857988)
+ (10.6,2.755142992)
+ (10.7,2.801146583)
+ (10.8,2.847387005)
+ (10.9,2.879221903)
+ (11.0,2.890633398)
+ (11.1,2.888547011)
+ (11.2,2.88499497)
+ (11.3,2.879166682)
+ (11.4,2.874805704)
+ (11.5,2.869647142)
+ (11.6,2.86408496)
+ (11.7,2.859108025)
+ (11.8,2.853769456)
+ (11.9,2.849100433)
+ (12.0,2.844473071)
ERON_P13p5m13p5 NRON_P13p5m13p5 GND TABLE {V(SX,GND)} = 
+ (-13.5,2.958861672)
+ (-13.4,2.962642618)
+ (-13.3,2.966674363)
+ (-13.2,2.971460021)
+ (-13.1,2.976174899)
+ (-13.0,2.980150339)
+ (-12.9,2.985159428)
+ (-12.8,2.989777247)
+ (-12.7,2.995428152)
+ (-12.6,2.999780546)
+ (-12.5,3.004021457)
+ (-12.4,3.008108124)
+ (-12.3,3.009236088)
+ (-12.2,3.002058689)
+ (-12.1,2.979860311)
+ (-12.0,2.950123077)
+ (-11.9,2.92123964)
+ (-11.8,2.892606281)
+ (-11.7,2.865757995)
+ (-11.6,2.841620455)
+ (-11.5,2.81900347)
+ (-11.4,2.798228676)
+ (-11.3,2.777845782)
+ (-11.2,2.75881573)
+ (-11.1,2.740051974)
+ (-11.0,2.723256361)
+ (-10.9,2.706237014)
+ (-10.8,2.690613681)
+ (-10.7,2.674809113)
+ (-10.6,2.660511678)
+ (-10.5,2.645753699)
+ (-10.4,2.631987258)
+ (-10.3,2.619476534)
+ (-10.2,2.608013593)
+ (-10.1,2.594498255)
+ (-10.0,2.582573043)
+ (-9.9,2.570914424)
+ (-9.8,2.560442115)
+ (-9.7,2.548895516)
+ (-9.6,2.538269097)
+ (-9.5,2.529472108)
+ (-9.4,2.518958345)
+ (-9.3,2.508708536)
+ (-9.2,2.500316621)
+ (-9.1,2.490556702)
+ (-9.0,2.481898573)
+ (-8.9,2.474455269)
+ (-8.8,2.466383946)
+ (-8.7,2.457042279)
+ (-8.6,2.450311664)
+ (-8.5,2.442910092)
+ (-8.4,2.435201361)
+ (-8.3,2.427228426)
+ (-8.2,2.420370777)
+ (-8.1,2.413835485)
+ (-8.0,2.407146509)
+ (-7.9,2.400806008)
+ (-7.8,2.394409489)
+ (-7.7,2.388083595)
+ (-7.6,2.382775741)
+ (-7.5,2.376323807)
+ (-7.4,2.370569482)
+ (-7.3,2.365262093)
+ (-7.2,2.358921912)
+ (-7.1,2.353475318)
+ (-7.0,2.348907378)
+ (-6.9,2.343977406)
+ (-6.8,2.339326245)
+ (-6.7,2.334507602)
+ (-6.6,2.329841585)
+ (-6.5,2.324576375)
+ (-6.4,2.320302059)
+ (-6.3,2.316712004)
+ (-6.2,2.311907245)
+ (-6.1,2.308037885)
+ (-6.0,2.303874907)
+ (-5.9,2.299753629)
+ (-5.8,2.295242318)
+ (-5.7,2.291038211)
+ (-5.6,2.28793595)
+ (-5.5,2.283898711)
+ (-5.4,2.280532417)
+ (-5.3,2.276662339)
+ (-5.2,2.273574816)
+ (-5.1,2.270347692)
+ (-5.0,2.267022499)
+ (-4.9,2.263864733)
+ (-4.8,2.261587141)
+ (-4.7,2.258177787)
+ (-4.6,2.255299)
+ (-4.5,2.251359574)
+ (-4.4,2.248872665)
+ (-4.3,2.24604988)
+ (-4.2,2.243478294)
+ (-4.1,2.241367442)
+ (-4.0,2.238001119)
+ (-3.9,2.235959414)
+ (-3.8,2.233192831)
+ (-3.7,2.23137616)
+ (-3.6,2.229125245)
+ (-3.5,2.226512557)
+ (-3.4,2.225113778)
+ (-3.3,2.222514452)
+ (-3.2,2.221157791)
+ (-3.1,2.218949267)
+ (-3.0,2.215708016)
+ (-2.9,2.214518753)
+ (-2.8,2.212142381)
+ (-2.7,2.210632237)
+ (-2.6,2.208284105)
+ (-2.5,2.206523088)
+ (-2.4,2.20558409)
+ (-2.3,2.203697881)
+ (-2.2,2.202270874)
+ (-2.1,2.200676803)
+ (-2.0,2.199054189)
+ (-1.9,2.197306395)
+ (-1.8,2.196969435)
+ (-1.7,2.195235803)
+ (-1.6,2.193697198)
+ (-1.5,2.191949446)
+ (-1.4,2.190773272)
+ (-1.3,2.189500742)
+ (-1.2,2.187990436)
+ (-1.1,2.186717525)
+ (-1.0,2.18577962)
+ (-0.9,2.18498045)
+ (-0.8,2.184782661)
+ (-0.7,2.183817327)
+ (-0.6,2.183493288)
+ (-0.5,2.182289422)
+ (-0.4,2.181630828)
+ (-0.3,2.180790513)
+ (-0.2,2.179796777)
+ (-0.1,2.179835971)
+ (0.0,2.179093351)
+ (0.1,2.178336487)
+ (0.2,2.177426078)
+ (0.3,2.177744613)
+ (0.4,2.176946073)
+ (0.5,2.17623119)
+ (0.6,2.177038584)
+ (0.7,2.175862742)
+ (0.8,2.17553931)
+ (0.9,2.175578046)
+ (1.0,2.174988651)
+ (1.1,2.174888089)
+ (1.2,2.174857998)
+ (1.3,2.1744782)
+ (1.4,2.17418194)
+ (1.5,2.174221362)
+ (1.6,2.174134733)
+ (1.7,2.175039552)
+ (1.8,2.174771388)
+ (1.9,2.174726024)
+ (2.0,2.175338096)
+ (2.1,2.175349335)
+ (2.2,2.175946715)
+ (2.3,2.176935961)
+ (2.4,2.177002188)
+ (2.5,2.176762536)
+ (2.6,2.177946388)
+ (2.7,2.177845521)
+ (2.8,2.179419394)
+ (2.9,2.17955748)
+ (3.0,2.179833341)
+ (3.1,2.180724065)
+ (3.2,2.181223783)
+ (3.3,2.182044617)
+ (3.4,2.182949569)
+ (3.5,2.183770411)
+ (3.6,2.184982347)
+ (3.7,2.185592985)
+ (3.8,2.186316144)
+ (3.9,2.187821004)
+ (4.0,2.18864096)
+ (4.1,2.189630339)
+ (4.2,2.191427929)
+ (4.3,2.192597891)
+ (4.4,2.193572366)
+ (4.5,2.195146774)
+ (4.6,2.197238226)
+ (4.7,2.198435696)
+ (4.8,2.199578362)
+ (4.9,2.201515132)
+ (5.0,2.203146335)
+ (5.1,2.203882214)
+ (5.2,2.20658831)
+ (5.3,2.208497321)
+ (5.4,2.210520004)
+ (5.5,2.212582597)
+ (5.6,2.21527434)
+ (5.7,2.216988219)
+ (5.8,2.218422311)
+ (5.9,2.221323781)
+ (6.0,2.22395981)
+ (6.1,2.226483419)
+ (6.2,2.228532899)
+ (6.3,2.230749377)
+ (6.4,2.233161357)
+ (6.5,2.236368951)
+ (6.6,2.23830691)
+ (6.7,2.241068327)
+ (6.8,2.244722183)
+ (6.9,2.248238018)
+ (7.0,2.25165537)
+ (7.1,2.254919149)
+ (7.2,2.257791589)
+ (7.3,2.262019003)
+ (7.4,2.264724092)
+ (7.5,2.268671408)
+ (7.6,2.272437922)
+ (7.7,2.275981457)
+ (7.8,2.280055051)
+ (7.9,2.284728222)
+ (8.0,2.288564713)
+ (8.1,2.293642748)
+ (8.2,2.298023401)
+ (8.3,2.302920258)
+ (8.4,2.307607334)
+ (8.5,2.311764977)
+ (8.6,2.317834659)
+ (8.7,2.32347113)
+ (8.8,2.329233271)
+ (8.9,2.335079649)
+ (9.0,2.3409125)
+ (9.1,2.346618038)
+ (9.2,2.353260201)
+ (9.3,2.359818755)
+ (9.4,2.366963116)
+ (9.5,2.373660897)
+ (9.6,2.381210342)
+ (9.7,2.389582785)
+ (9.8,2.398150647)
+ (9.9,2.407236566)
+ (10.0,2.416055738)
+ (10.1,2.424637971)
+ (10.2,2.434713798)
+ (10.3,2.445305396)
+ (10.4,2.45591245)
+ (10.5,2.465555907)
+ (10.6,2.478828078)
+ (10.7,2.490914329)
+ (10.8,2.504703381)
+ (10.9,2.519288081)
+ (11.0,2.533956176)
+ (11.1,2.550467154)
+ (11.2,2.568459164)
+ (11.3,2.586700945)
+ (11.4,2.607637518)
+ (11.5,2.629230873)
+ (11.6,2.65269227)
+ (11.7,2.678878292)
+ (11.8,2.708636574)
+ (11.9,2.741676164)
+ (12.0,2.780299174)
+ (12.1,2.822969478)
+ (12.2,2.872173635)
+ (12.3,2.921112228)
+ (12.4,2.95722308)
+ (12.5,2.970132014)
+ (12.6,2.969891867)
+ (12.7,2.965492704)
+ (12.8,2.960408121)
+ (12.9,2.955575695)
+ (13.0,2.950602694)
+ (13.1,2.945086751)
+ (13.2,2.939514805)
+ (13.3,2.934695859)
+ (13.4,2.930226307)
+ (13.5,2.92483433)
ERON_P15p0m15p0 NRON_P15p0m15p0 GND TABLE {V(SX,GND)} = 
+ (-15.0,2.838155836)
+ (-14.9,2.842605452)
+ (-14.8,2.844808806)
+ (-14.7,2.849538219)
+ (-14.6,2.853163799)
+ (-14.5,2.857139398)
+ (-14.4,2.861379993)
+ (-14.3,2.864449399)
+ (-14.2,2.868201117)
+ (-14.1,2.872902762)
+ (-14.0,2.875999682)
+ (-13.9,2.879988834)
+ (-13.8,2.880880134)
+ (-13.7,2.872724817)
+ (-13.6,2.851908253)
+ (-13.5,2.825327696)
+ (-13.4,2.797642598)
+ (-13.3,2.771661632)
+ (-13.2,2.747341247)
+ (-13.1,2.72479377)
+ (-13.0,2.703768906)
+ (-12.9,2.684390536)
+ (-12.8,2.665430492)
+ (-12.7,2.647656566)
+ (-12.6,2.630721582)
+ (-12.5,2.614470092)
+ (-12.4,2.598553601)
+ (-12.3,2.584229207)
+ (-12.2,2.569289968)
+ (-12.1,2.555899324)
+ (-12.0,2.542369431)
+ (-11.9,2.529873775)
+ (-11.8,2.516861414)
+ (-11.7,2.504531795)
+ (-11.6,2.493668025)
+ (-11.5,2.482247169)
+ (-11.4,2.472026049)
+ (-11.3,2.461497947)
+ (-11.2,2.450927786)
+ (-11.1,2.440873936)
+ (-11.0,2.431085738)
+ (-10.9,2.422091564)
+ (-10.8,2.413408117)
+ (-10.7,2.403829361)
+ (-10.6,2.395450304)
+ (-10.5,2.387072128)
+ (-10.4,2.3788894)
+ (-10.3,2.370719228)
+ (-10.2,2.36333287)
+ (-10.1,2.355274931)
+ (-10.0,2.348585512)
+ (-9.9,2.341938)
+ (-9.8,2.334718185)
+ (-9.7,2.327792472)
+ (-9.6,2.321200358)
+ (-9.5,2.314664204)
+ (-9.4,2.308128801)
+ (-9.3,2.301900081)
+ (-9.2,2.296104655)
+ (-9.1,2.290071042)
+ (-9.0,2.285029196)
+ (-8.9,2.2783676)
+ (-8.8,2.274093924)
+ (-8.7,2.267585276)
+ (-8.6,2.262878916)
+ (-8.5,2.257794296)
+ (-8.4,2.253143095)
+ (-8.3,2.248017374)
+ (-8.2,2.24308713)
+ (-8.1,2.239119656)
+ (-8.0,2.234943409)
+ (-7.9,2.230123837)
+ (-7.8,2.225556659)
+ (-7.7,2.222120319)
+ (-7.6,2.21744102)
+ (-7.5,2.212649989)
+ (-7.4,2.209269179)
+ (-7.3,2.205497594)
+ (-7.2,2.200775338)
+ (-7.1,2.197465606)
+ (-7.0,2.194307396)
+ (-6.9,2.190870884)
+ (-6.8,2.187615499)
+ (-6.7,2.183690234)
+ (-6.6,2.17998833)
+ (-6.5,2.176439818)
+ (-6.4,2.173812252)
+ (-6.3,2.170640152)
+ (-6.2,2.168432645)
+ (-6.1,2.164465376)
+ (-6.0,2.161446606)
+ (-5.9,2.158945003)
+ (-5.8,2.155648065)
+ (-5.7,2.153133666)
+ (-5.6,2.149989183)
+ (-5.5,2.148172123)
+ (-5.4,2.145126277)
+ (-5.3,2.142750497)
+ (-5.2,2.139843274)
+ (-5.1,2.137928824)
+ (-5.0,2.135790331)
+ (-4.9,2.132744373)
+ (-4.8,2.130381869)
+ (-4.7,2.128508891)
+ (-4.6,2.126552064)
+ (-4.5,2.124231832)
+ (-4.4,2.122345126)
+ (-4.3,2.120625217)
+ (-4.2,2.118360076)
+ (-4.1,2.116151854)
+ (-4.0,2.114250959)
+ (-3.9,2.112810094)
+ (-3.8,2.109861515)
+ (-3.7,2.108588752)
+ (-3.6,2.106799828)
+ (-3.5,2.104535187)
+ (-3.4,2.103918302)
+ (-3.3,2.101835664)
+ (-3.2,2.100157353)
+ (-3.1,2.098772578)
+ (-3.0,2.097290955)
+ (-2.9,2.0952773)
+ (-2.8,2.094478819)
+ (-2.7,2.092493367)
+ (-2.6,2.092002593)
+ (-2.5,2.090645454)
+ (-2.4,2.089498467)
+ (-2.3,2.087332019)
+ (-2.2,2.08699399)
+ (-2.1,2.085651569)
+ (-2.0,2.084140682)
+ (-1.9,2.082239465)
+ (-1.8,2.08213846)
+ (-1.7,2.080307427)
+ (-1.6,2.079885533)
+ (-1.5,2.078515315)
+ (-1.4,2.078094199)
+ (-1.3,2.077351185)
+ (-1.2,2.076427141)
+ (-1.1,2.07562868)
+ (-1.0,2.075347241)
+ (-0.9,2.073668302)
+ (-0.8,2.072953751)
+ (-0.7,2.072169634)
+ (-0.6,2.072208611)
+ (-0.5,2.070921554)
+ (-0.4,2.070290763)
+ (-0.3,2.070134579)
+ (-0.2,2.069154099)
+ (-0.1,2.068188419)
+ (0.0,2.067794726)
+ (0.1,2.067345003)
+ (0.2,2.066351618)
+ (0.3,2.066809329)
+ (0.4,2.066582393)
+ (0.5,2.065770134)
+ (0.6,2.06558611)
+ (0.7,2.065737238)
+ (0.8,2.065986622)
+ (0.9,2.06553587)
+ (1.0,2.065938052)
+ (1.1,2.065126152)
+ (1.2,2.066100872)
+ (1.3,2.065804138)
+ (1.4,2.065271237)
+ (1.5,2.065561312)
+ (1.6,2.064679773)
+ (1.7,2.065109301)
+ (1.8,2.065273689)
+ (1.9,2.065801559)
+ (2.0,2.06472425)
+ (2.1,2.066019359)
+ (2.2,2.06646358)
+ (2.3,2.066167307)
+ (2.4,2.066820478)
+ (2.5,2.067152345)
+ (2.6,2.067889745)
+ (2.7,2.067287211)
+ (2.8,2.068052129)
+ (2.9,2.068593034)
+ (3.0,2.069261416)
+ (3.1,2.069496189)
+ (3.2,2.069757922)
+ (3.3,2.070858008)
+ (3.4,2.072279089)
+ (3.5,2.07163416)
+ (3.6,2.072637042)
+ (3.7,2.072675196)
+ (3.8,2.073581063)
+ (3.9,2.074261558)
+ (4.0,2.075096205)
+ (4.1,2.075902878)
+ (4.2,2.076235221)
+ (4.3,2.077390979)
+ (4.4,2.079147511)
+ (4.5,2.07974508)
+ (4.6,2.080607466)
+ (4.7,2.082237481)
+ (4.8,2.083506137)
+ (4.9,2.084172848)
+ (5.0,2.085412564)
+ (5.1,2.086359149)
+ (5.2,2.08744464)
+ (5.3,2.088977981)
+ (5.4,2.090217431)
+ (5.5,2.091205717)
+ (5.6,2.092500935)
+ (5.7,2.094592421)
+ (5.8,2.095985301)
+ (5.9,2.098244106)
+ (6.0,2.099916882)
+ (6.1,2.101379328)
+ (6.2,2.102339696)
+ (6.3,2.103663115)
+ (6.4,2.10581014)
+ (6.5,2.10755147)
+ (6.6,2.110020573)
+ (6.7,2.111511007)
+ (6.8,2.113058505)
+ (6.9,2.116098573)
+ (7.0,2.117603111)
+ (7.1,2.120336927)
+ (7.2,2.122245965)
+ (7.3,2.125006916)
+ (7.4,2.127475428)
+ (7.5,2.129524404)
+ (7.6,2.133193019)
+ (7.7,2.134725813)
+ (7.8,2.138059093)
+ (7.9,2.1398294)
+ (8.0,2.143065111)
+ (8.1,2.146188648)
+ (8.2,2.14897908)
+ (8.3,2.151614322)
+ (8.4,2.154459261)
+ (8.5,2.158239444)
+ (8.6,2.161111766)
+ (8.7,2.1642216)
+ (8.8,2.1681144)
+ (8.9,2.171642679)
+ (9.0,2.174279172)
+ (9.1,2.178826709)
+ (9.2,2.182020681)
+ (9.3,2.186261435)
+ (9.4,2.190278697)
+ (9.5,2.194617276)
+ (9.6,2.198802599)
+ (9.7,2.203490046)
+ (9.8,2.208135877)
+ (9.9,2.21311658)
+ (10.0,2.217748529)
+ (10.1,2.223539029)
+ (10.2,2.228630912)
+ (10.3,2.23439316)
+ (10.4,2.239793101)
+ (10.5,2.244773312)