.SUBCKT TMUX7201 S1 NC GND VDD NC SEL1 VSS D1 
*Supply currents
X_U1    VDD GND I_VDD
X_U2    VSS GND I_VSS
*I/O diodes
X_U3    VSS S1 ESD_diode
X_U4    S1 VDD ESD_diode
X_U5    VSS D1 ESD_diode
X_U6    D1 VDD ESD_diode
*Comparators (VIH/VIL)
X_U7    VDD_L VDD VDD_NL GND COMPARATOR_VDD
X_U8    SEL1_L SEL1 SEL1_NL GND COMPARATOR_SEL1
*Input delays
X_U9    VDD_NL VDD GND VDD_L Delay_VDD
R1    VDD_L  GND    50
X_U10    SEL1_NL VDD GND SEL1_L Delay_SEL1
R2    SEL1_L  GND    50
*LOGIC
X_U11    VDD_L SEL1_L SW_S1_L SW_D1_L SW_S1D1_L GND LOGIC
*Output delays
X_U12    SW_S1_L VDD GND SW_S1 Delay_SW_S1
X_U13    SW_D1_L VDD GND SW_D1 Delay_SW_D1
X_U14    SW_S1D1_L VDD GND SW_S1D1 Delay_SW_S1D1
*Switch I/O (COFF, CON, ION, IOFF, BW)
X_U15    D1 VDD VSS SW_D1 GND D1_IO
X_U16    S1 VDD VSS SW_S1 GND S1_IO
*Switch blocks (Ron, OISO)
X_U17    S1 D1 VDD VSS GND SW_S1D1 SWITCH_S1
*switch to switch capacitance (XTALK)
*Charge injection blocks (Qc)
X_U18    S1 VDD VSS D1 SW_S1D1 GND GND QC_S1
.ENDS TMUX7201 
*$
*These circuits add a series diode that simulates an ESD diode from IN (-) to OUT (+)
*This diode will not cause a failure when IN > OUT but may show a large increase in current consumption 
*$
.SUBCKT ESD_Diode IN OUT
*
.MODEL DCLAMP D(IS=1E-15 IBV=1E-13 ISR = 1E-15)
D1 IN OUT DCLAMP
*
.ENDS
*$
*These circuits add a parallel current source/sink to simulate supply current consumption, based on the table
*
.SUBCKT I_VSS VSS GND
*
EI_VSS NVSS GND TABLE {V(VSS,GND)} = 
+ (-20,-8e-06)
+ (-15,-7e-06)
+ (0,0.0)
*
GVSS VSS GND VALUE = {(V(NVSS)+1p)}
*
.ENDS
.SUBCKT I_VDD VDD GND
*
EI_VDD NVDD GND TABLE {V(VDD,GND)} = 
+ (4,1.5e-05)
+ (12,1.5e-05)
+ (15,39e-06)
+ (20.0,38e-06)
+ (44,2e-05)
*
GVDD VDD GND VALUE = {(V(NVDD)+1p)}
*
.ENDS
*
*These circuits compare the current state and the input voltage to find the new state
*if the current state is on (1) then we will change states if VIN goes below VIL (1 to 0)
*if the current state is on (0) then we will change states if VIN goes above VIH (0 to 1)
.SUBCKT COMPARATOR_VDD  STATE VIN NEWSTATE GND
EVIH VIH GND TABLE {V(VIN,GND)} = 
+ (0,0)
+ (4.499,0)
+ (4.5,1)
EVIL VIL GND TABLE {V(VIN,GND)} = 
+ (0,0)
+ (4.2989999999999995,0)
+ (4.3,1)
EOUT NEWSTATE GND VALUE = { IF (V(STATE, GND)>0.63, V(VIH,GND), V(VIL,GND) ) }
.ENDS
*$
.SUBCKT COMPARATOR_SEL1  STATE VIN NEWSTATE GND
EVIH VIH GND TABLE {V(VIN,GND)} = 
+ (0,0)
+ (1.2990000000000002,0)
+ (1.3,1)
EVIL VIL GND TABLE {V(VIN,GND)} = 
+ (0,0)
+ (0.799,0)
+ (0.8,1)
EOUT NEWSTATE GND VALUE = { IF (V(STATE, GND)>0.63, V(VIH,GND), V(VIL,GND) ) }
.ENDS
*$
*These circuits handle all the logic for the device
*this does NOT handle timing delays or VIH VIL, all signals here are 1/0 logic
*VDD SEL1    SW_S1 SW_D1 SW_S1D1 
*1   0       0     0     0       
*1   1       1     1     1       
*$
.SUBCKT LOGIC  LVDD LSEL1 SW_S1 SW_D1 SW_S1D1 GND
*
*convert analog RC to 1/0 digital
ELVDD_DIG LVDD_DIG GND VALUE = {IF (V(LVDD,GND)>0.63,1, 0) }
ELSEL1_DIG LSEL1_DIG GND VALUE = {IF (V(LSEL1,GND)>0.63,1, 0) }
*Create an inverse of all inputs in case they need to be used
ELVDD_DIGN LVDD_DIGN GND VALUE = { 1 - V(LVDD_DIG, GND)}
ELSEL1_DIGN LSEL1_DIGN GND VALUE = { 1 - V(LSEL1_DIG, GND)}
*
*Determine output states and rectify outputs
ELSW_S1 LSW_S1 GND VALUE = { V(LVDD_DIG,GND) * V(LSEL1_DIG,GND) }
ESW_S1 SW_S1 GND VALUE = { IF (V(LSW_S1, GND)>0.5,1,0) }
ELSW_D1 LSW_D1 GND VALUE = { V(LVDD_DIG,GND) * V(LSEL1_DIG,GND) }
ESW_D1 SW_D1 GND VALUE = { IF (V(LSW_D1, GND)>0.5,1,0) }
ELSW_S1D1 LSW_S1D1 GND VALUE = { V(LVDD_DIG,GND) * V(LSEL1_DIG,GND) }
ESW_S1D1 SW_S1D1 GND VALUE = { IF (V(LSW_S1D1, GND)>0.5,1,0) }
*
.ENDS
*$
*These circuits add a RC delay in series to the In and OUT signal
*split delays depending on if IN is going high to low or low to high
*if IN is going high to low, the R needs to be adjusted by /0.46471 to convert the 0.37% time to 0.63%
*TON_TOFF_SUPPLY
.SUBCKT Delay_VDD  IN VDD GND OUT
*
C1 OUT_ONDLY GND 1e-09
ERON NRON GND TABLE {V(VDD,GND)} =
+ (12,190000.0)
+ (15,190000.0)
+ (20,180000.0)
+ (44,150000.0)
R1 OUT_ONDLY IN 10e9
GRON OUT_ONDLY IN VALUE = {V(OUT_ONDLY,IN)/V(NRON)}
*
EOUT_ONREC OUT_ONREC GND VALUE = { V(OUT_ONDLY, GND)}
*
S_ON OUT_ONREC OUT IN GND  SWON
.MODEL SWON VSWITCH Roff=1e9 Ron=0.001 Voff=0.37V Von=0.63V
*
C2 OUT_OFFDLY GND 1e-09
EROFF NROFF GND TABLE {V(VDD,GND)} =
+ (12,408860.2466)
+ (15,408860.2466)
+ (20,387341.2862)
+ (44,322784.4052)
R2 OUT_OFFDLY IN 10e9
GROFF OUT_OFFDLY IN VALUE = {V(OUT_OFFDLY,IN)/V(NROFF)}
*
EOUT_OFFREC OUT_OFFREC GND VALUE = { V(OUT_OFFDLY, GND)}
*
S_OFF OUT_OFFREC OUT IN GND  SWOFF
.MODEL SWOFF VSWITCH Roff=1e9 Ron=0.001 Voff=0.63V Von=0.37V
*
.ENDS
*
*TON_TOFF_EN
.SUBCKT Delay_SEL1  IN VDD GND OUT
*
C1 OUT_ONDLY GND 1e-09
ERON NRON GND TABLE {V(VDD,GND)} =
+ (12,170.0)
+ (15,100.0)
+ (20,110.0)
+ (44,120.0)
R1 OUT_ONDLY IN 10e9
GRON OUT_ONDLY IN VALUE = {V(OUT_ONDLY,IN)/V(NRON)}
*
EOUT_ONREC OUT_ONREC GND VALUE = { V(OUT_ONDLY, GND)}
*
S_ON OUT_ONREC OUT IN GND  SWON
.MODEL SWON VSWITCH Roff=1e9 Ron=0.001 Voff=0.37V Von=0.63V
*
C2 OUT_OFFDLY GND 1e-09
EROFF NROFF GND TABLE {V(VDD,GND)} =
+ (12,279.7465)
+ (15,172.1517)
+ (20,236.7086)
+ (44,258.2275)
R2 OUT_OFFDLY IN 10e9
GROFF OUT_OFFDLY IN VALUE = {V(OUT_OFFDLY,IN)/V(NROFF)}
*
EOUT_OFFREC OUT_OFFREC GND VALUE = { V(OUT_OFFDLY, GND)}
*
S_OFF OUT_OFFREC OUT IN GND  SWOFF
.MODEL SWOFF VSWITCH Roff=1e9 Ron=0.001 Voff=0.63V Von=0.37V
*
.ENDS
*
*BUFFER
.SUBCKT Delay_SW_D1  IN VDD GND OUT
*
C1 OUT_ONDLY GND 1e-09
ERON NRON GND TABLE {V(VDD,GND)} =
+ (12,10.0)
+ (15,10.0)
+ (20,10.0)
+ (44,10.0)
R1 OUT_ONDLY IN 10e9
GRON OUT_ONDLY IN VALUE = {V(OUT_ONDLY,IN)/V(NRON)}
*
EOUT_ONREC OUT_ONREC GND VALUE = { V(OUT_ONDLY, GND)}
*
S_ON OUT_ONREC OUT IN GND  SWON
.MODEL SWON VSWITCH Roff=1e9 Ron=0.001 Voff=0.37V Von=0.63V
*
C2 OUT_OFFDLY GND 1e-09
EROFF NROFF GND TABLE {V(VDD,GND)} =
+ (12,21.519)
+ (15,21.519)
+ (20,21.519)
+ (44,21.519)
R2 OUT_OFFDLY IN 10e9
GROFF OUT_OFFDLY IN VALUE = {V(OUT_OFFDLY,IN)/V(NROFF)}
*
EOUT_OFFREC OUT_OFFREC GND VALUE = { V(OUT_OFFDLY, GND)}
*
S_OFF OUT_OFFREC OUT IN GND  SWOFF
.MODEL SWOFF VSWITCH Roff=1e9 Ron=0.001 Voff=0.63V Von=0.37V
*
.ENDS
*
.SUBCKT SWITCH_S1 SX DX VDD VSS GND SWx
*
.PARAM Ron_offset = 0
*
*Cap S to D
**see documentation for CTHRU calculation based on OISO
CTHRU SX DX 5.032933918669138e-12
*
*ONOFF switches
S_ON DX DX_SWON SWx GND  SWON
.MODEL SWON VSWITCH Roff=1e9 Ron=0.001 Voff=0.37V Von=0.63V
*
*Ron tables
ERON_P5p0m5p0 NRON_P5p0m5p0 GND TABLE {V(SX,GND)} = 
+ (-5.0,2.3421187195)
+ (-4.9,2.3542790195)
+ (-4.8,2.36663854)
+ (-4.7,2.379191739)
+ (-4.6,2.3921002765)
+ (-4.5,2.4051774725)
+ (-4.4,2.4184520545)
+ (-4.3,2.4320156895)
+ (-4.2,2.4457677655)
+ (-4.1,2.4597833135)
+ (-4.0,2.47402923)
+ (-3.9,2.487999318)
+ (-3.8,2.5006027555)
+ (-3.7,2.5096336335)
+ (-3.6,2.5137102665)
+ (-3.5,2.5118698585)
+ (-3.4,2.50359067)
+ (-3.3,2.489580326)
+ (-3.2,2.4708371575)
+ (-3.1,2.448596373)
+ (-3.0,2.424218486)
+ (-2.9,2.3990352095)
+ (-2.8,2.373765607)
+ (-2.7,2.3490986805)
+ (-2.6,2.32510633)
+ (-2.5,2.302219317)
+ (-2.4,2.2805490995)
+ (-2.3,2.2600023615)
+ (-2.2,2.2407665305)
+ (-2.1,2.222629818)
+ (-2.0,2.20550769)
+ (-1.9,2.1895394545)
+ (-1.8,2.1746402735)
+ (-1.7,2.1606308225)
+ (-1.6,2.147571128)
+ (-1.5,2.13530216)
+ (-1.4,2.1239056355)
+ (-1.3,2.113230213)
+ (-1.2,2.1033855045)
+ (-1.1,2.0941975085)
+ (-1.0,2.085589362)
+ (-0.9,2.077745627)
+ (-0.8,2.0704278705)
+ (-0.7,2.063741168)
+ (-0.6,2.0576273115)
+ (-0.5,2.052077475)
+ (-0.4,2.046968447)
+ (-0.3,2.042428863)
+ (-0.2,2.0384392195)
+ (-0.1,2.0348692385)
+ (0.0,2.0319096125)
+ (0.1,2.0295013785)
+ (0.2,2.027405521)
+ (0.3,2.025907007)
+ (0.4,2.0249206005)
+ (0.5,2.024383034)
+ (0.6,2.0244346675)
+ (0.7,2.02494374)
+ (0.8,2.0259262975)
+ (0.9,2.0275528715)
+ (1.0,2.029647302)
+ (1.1,2.0322321335)
+ (1.2,2.035545192)
+ (1.3,2.039392599)
+ (1.4,2.04382458)
+ (1.5,2.048842519)
+ (1.6,2.054767891)
+ (1.7,2.0613547985)
+ (1.8,2.068714685)
+ (1.9,2.076932698)
+ (2.0,2.0860714645)
+ (2.1,2.096270854)
+ (2.2,2.107416392)
+ (2.3,2.1199128325)
+ (2.4,2.133721078)
+ (2.5,2.148922262)
+ (2.6,2.165864883)
+ (2.7,2.1845783135)
+ (2.8,2.205604242)
+ (2.9,2.2291855325)
+ (3.0,2.2557238515)
+ (3.1,2.2856700075)
+ (3.2,2.3199345025)
+ (3.3,2.359441842)
+ (3.4,2.405313648)
+ (3.5,2.459480642)
+ (3.6,2.523612072)
+ (3.7,2.5979759555)
+ (3.8,2.6746361665)
+ (3.9,2.72862621)
+ (4.0,2.741541896)
+ (4.1,2.7295246835)
+ (4.2,2.7102880565)
+ (4.3,2.690161952)
+ (4.4,2.67011416)
+ (4.5,2.650595404)
+ (4.6,2.631355577)
+ (4.7,2.612700604)
+ (4.8,2.5943305575)
+ (4.9,2.5762486225)
+ (5.0,2.5588331955)
ERON_P10p0m10p0 NRON_P10p0m10p0 GND TABLE {V(SX,GND)} = 
+ (-10.0,1.6779469905)
+ (-9.9,1.681789117)
+ (-9.8,1.6859807835)
+ (-9.7,1.68957183)
+ (-9.6,1.6935878325)
+ (-9.5,1.6973746855)
+ (-9.4,1.7011193665)
+ (-9.3,1.705066265)
+ (-9.2,1.7090972125)
+ (-9.1,1.71317654)
+ (-9.0,1.7168022815)
+ (-8.9,1.7208057995)
+ (-8.8,1.7227354175)
+ (-8.7,1.717936706)
+ (-8.6,1.7019640065)
+ (-8.5,1.6782574325)
+ (-8.4,1.6540071095)
+ (-8.3,1.630056689)
+ (-8.2,1.6080881935)
+ (-8.1,1.5876764495)
+ (-8.0,1.568646561)
+ (-7.9,1.5514382465)
+ (-7.8,1.535095479)
+ (-7.7,1.5198974065)
+ (-7.6,1.5058581325)
+ (-7.5,1.4920418055)
+ (-7.4,1.4795586465)
+ (-7.3,1.4675644625)
+ (-7.2,1.4564493695)
+ (-7.1,1.4456766855)
+ (-7.0,1.4358667025)
+ (-6.9,1.4259449915)
+ (-6.8,1.416819494)
+ (-6.7,1.408237962)
+ (-6.6,1.399740114)
+ (-6.5,1.3918987055)
+ (-6.4,1.3839106155)
+ (-6.3,1.376494413)
+ (-6.2,1.369700096)
+ (-6.1,1.363261407)
+ (-6.0,1.3562847965)
+ (-5.9,1.3504394445)
+ (-5.8,1.34452448)
+ (-5.7,1.338595481)
+ (-5.6,1.332861905)
+ (-5.5,1.327512105)
+ (-5.4,1.322531959)
+ (-5.3,1.317538179)
+ (-5.2,1.312537206)
+ (-5.1,1.307808429)
+ (-5.0,1.3035403305)
+ (-4.9,1.299006854)
+ (-4.8,1.295493006)
+ (-4.7,1.291106063)
+ (-4.6,1.2871382695)
+ (-4.5,1.2839172785)
+ (-4.4,1.279872632)
+ (-4.3,1.2768475245)
+ (-4.2,1.27317234)
+ (-4.1,1.269490513)
+ (-4.0,1.266722997)
+ (-3.9,1.263599753)
+ (-3.8,1.2607624915)
+ (-3.7,1.2578556215)
+ (-3.6,1.2550321745)
+ (-3.5,1.2518390645)
+ (-3.4,1.2496510875)
+ (-3.3,1.2469390415)
+ (-3.2,1.244870227)
+ (-3.1,1.2423608955)
+ (-3.0,1.240249495)
+ (-2.9,1.237559113)
+ (-2.8,1.2355314095)
+ (-2.7,1.233790062)
+ (-2.6,1.231699495)
+ (-2.5,1.229574272)
+ (-2.4,1.2279444455)
+ (-2.3,1.2258963155)
+ (-2.2,1.224447929)
+ (-2.1,1.222755289)
+ (-2.0,1.220825264)
+ (-1.9,1.2196144045)
+ (-1.8,1.21801256)
+ (-1.7,1.216885199)
+ (-1.6,1.21558363)
+ (-1.5,1.2144567315)
+ (-1.4,1.2131059285)
+ (-1.3,1.2118669995)
+ (-1.2,1.210886662)
+ (-1.1,1.2095851705)
+ (-1.0,1.208255165)
+ (-0.9,1.207567793)
+ (-0.8,1.2062450325)
+ (-0.7,1.2055297205)
+ (-0.6,1.20501663)
+ (-0.5,1.2042666585)
+ (-0.4,1.203334629)
+ (-0.3,1.2028074625)
+ (-0.2,1.2019111375)
+ (-0.1,1.2009235655)
+ (0.0,1.2004660435)
+ (0.1,1.2001901685)
+ (0.2,1.1997959235)
+ (0.3,1.199646041)
+ (0.4,1.1994818195)
+ (0.5,1.199143528)
+ (0.6,1.198525961)
+ (0.7,1.1982431065)
+ (0.8,1.1981073855)
+ (0.9,1.197796456)
+ (1.0,1.197660416)
+ (1.1,1.197859498)
+ (1.2,1.197778744)
+ (1.3,1.197971095)
+ (1.4,1.1977511025)
+ (1.5,1.1979011155)
+ (1.6,1.197918738)
+ (1.7,1.198347768)
+ (1.8,1.198574895)
+ (1.9,1.199039289)
+ (2.0,1.1997334325)
+ (2.1,1.199904566)
+ (2.2,1.200173222)
+ (2.3,1.200595166)
+ (2.4,1.201325013)
+ (2.5,1.202137936)
+ (2.6,1.2026300965)
+ (2.7,1.203505968)
+ (2.8,1.2042703125)
+ (2.9,1.2048040415)
+ (3.0,1.2055125795)
+ (3.1,1.206919099)
+ (3.2,1.207913837)
+ (3.3,1.2087825055)
+ (3.4,1.210084443)
+ (3.5,1.2111138865)
+ (3.6,1.2122203015)
+ (3.7,1.213682495)
+ (3.8,1.214704955)
+ (3.9,1.2159299085)
+ (4.0,1.217482463)
+ (4.1,1.2192102245)
+ (4.2,1.220651368)
+ (4.3,1.222825647)
+ (4.4,1.2247417825)
+ (4.5,1.226455179)
+ (4.6,1.22838497)
+ (4.7,1.2300428845)
+ (4.8,1.2321326555)
+ (4.9,1.234670104)
+ (5.0,1.237339753)
+ (5.1,1.2394651615)
+ (5.2,1.241841721)
+ (5.3,1.2445253105)
+ (5.4,1.247194913)
+ (5.5,1.249823083)
+ (5.6,1.2529040925)
+ (5.7,1.2562230305)
+ (5.8,1.2595699455)
+ (5.9,1.2631887665)
+ (6.0,1.2666613425)
+ (6.1,1.2703847265)
+ (6.2,1.273969134)
+ (6.3,1.278795484)
+ (6.4,1.283035172)
+ (6.5,1.287163786)
+ (6.6,1.292074129)
+ (6.7,1.29733303)
+ (6.8,1.3022784955)
+ (6.9,1.308130969)
+ (7.0,1.3138293395)
+ (7.1,1.320191662)
+ (7.2,1.326657885)
+ (7.3,1.3344862615)
+ (7.4,1.3417968075)
+ (7.5,1.3500991395)
+ (7.6,1.358582574)
+ (7.7,1.367981141)
+ (7.8,1.378216442)
+ (7.9,1.389024271)
+ (8.0,1.4013468505)
+ (8.1,1.4142905795)
+ (8.2,1.4291744855)
+ (8.3,1.4452802325)
+ (8.4,1.463779308)
+ (8.5,1.48503586)
+ (8.6,1.509426151)
+ (8.7,1.536545705)
+ (8.8,1.5639160795)
+ (8.9,1.5839094635)
+ (9.0,1.5903759505)
+ (9.1,1.5895066485)
+ (9.2,1.5859715015)
+ (9.3,1.5823035025)
+ (9.4,1.5789499595)
+ (9.5,1.5749335075)
+ (9.6,1.571684533)
+ (9.7,1.568177066)
+ (9.8,1.564384167)
+ (9.9,1.561316251)
+ (10.0,1.558171582)
ERON_P12p0m12p0 NRON_P12p0m12p0 GND TABLE {V(SX,GND)} = 
+ (-12.0,1.53641332)
+ (-11.9,1.539027416)
+ (-11.8,1.541620506)
+ (-11.7,1.544549308)
+ (-11.6,1.547044527)
+ (-11.5,1.549895638)
+ (-11.4,1.5528028395)
+ (-11.3,1.5555075675)
+ (-11.2,1.558903363)
+ (-11.1,1.561287094)
+ (-11.0,1.5643827605)
+ (-10.9,1.567359585)
+ (-10.8,1.5683334885)
+ (-10.7,1.565119064)
+ (-10.6,1.551631471)
+ (-10.5,1.5316729485)
+ (-10.4,1.510939616)
+ (-10.3,1.4903047005)
+ (-10.2,1.471797821)
+ (-10.1,1.454352408)
+ (-10.0,1.438169782)
+ (-9.9,1.422650699)
+ (-9.8,1.40900899)
+ (-9.7,1.3960653315)
+ (-9.6,1.3834916425)
+ (-9.5,1.371664728)
+ (-9.4,1.36038193)
+ (-9.3,1.3502092355)
+ (-9.2,1.3403434425)
+ (-9.1,1.330659509)
+ (-9.0,1.322029031)
+ (-8.9,1.313580888)
+ (-8.8,1.3051384575)
+ (-8.7,1.2971784205)
+ (-8.6,1.289866967)
+ (-8.5,1.282828063)
+ (-8.4,1.2756633435)
+ (-8.3,1.2689949075)
+ (-8.2,1.2629049465)
+ (-8.1,1.256459641)
+ (-8.0,1.2506837295)
+ (-7.9,1.2449152845)
+ (-7.8,1.2392441945)
+ (-7.7,1.2338386615)
+ (-7.6,1.228984232)
+ (-7.5,1.223941901)
+ (-7.4,1.2198060625)
+ (-7.3,1.2149660815)
+ (-7.2,1.2107467135)
+ (-7.1,1.2066536585)
+ (-7.0,1.2024552555)
+ (-6.9,1.198243188)
+ (-6.8,1.194708243)
+ (-6.7,1.1903916665)
+ (-6.6,1.186423468)
+ (-6.5,1.183607521)
+ (-6.4,1.179597648)
+ (-6.3,1.1763067995)
+ (-6.2,1.1733368705)
+ (-6.1,1.170604515)
+ (-6.0,1.167362795)
+ (-5.9,1.1644627455)
+ (-5.8,1.161527944)
+ (-5.7,1.158425854)
+ (-5.6,1.156070233)
+ (-5.5,1.1531910775)
+ (-5.4,1.1508636145)
+ (-5.3,1.1480891005)
+ (-5.2,1.1456567525)
+ (-5.1,1.1433364335)
+ (-5.0,1.141085754)
+ (-4.9,1.1389880935)
+ (-4.8,1.1366533445)
+ (-4.7,1.134849737)
+ (-4.6,1.1328358685)
+ (-4.5,1.13129019)
+ (-4.4,1.128802047)
+ (-4.3,1.1268165095)
+ (-4.2,1.124942496)
+ (-4.1,1.1235081515)
+ (-4.0,1.121654822)
+ (-3.9,1.120053343)
+ (-3.8,1.1184449055)
+ (-3.7,1.1167731715)
+ (-3.6,1.115374339)
+ (-3.5,1.11369565)
+ (-3.4,1.112184768)
+ (-3.3,1.1110994015)
+ (-3.2,1.1097207875)
+ (-3.1,1.1085312235)
+ (-3.0,1.1069714235)
+ (-2.9,1.1054322325)
+ (-2.8,1.1043891805)
+ (-2.7,1.10333163)
+ (-2.6,1.1019184745)
+ (-2.5,1.1007776395)
+ (-2.4,1.099699431)
+ (-2.3,1.0985789065)
+ (-2.2,1.098122272)
+ (-2.1,1.0967647275)
+ (-2.0,1.095909626)
+ (-1.9,1.0953134615)
+ (-1.8,1.094856217)
+ (-1.7,1.093331172)
+ (-1.6,1.092399634)
+ (-1.5,1.0918242925)
+ (-1.4,1.0911716155)
+ (-1.3,1.0903655345)
+ (-1.2,1.0895452635)
+ (-1.1,1.089297863)
+ (-1.0,1.0884079785)
+ (-0.9,1.087874121)
+ (-0.8,1.0871658595)
+ (-0.7,1.0870927615)
+ (-0.6,1.0866775795)
+ (-0.5,1.0856339845)
+ (-0.4,1.085330762)
+ (-0.3,1.085069268)
+ (-0.2,1.0843747695)
+ (-0.1,1.084483466)
+ (0.0,1.083677291)
+ (0.1,1.0832130065)
+ (0.2,1.0831190295)
+ (0.3,1.0828017275)
+ (0.4,1.0827355095)
+ (0.5,1.08282277)
+ (0.6,1.082477357)
+ (0.7,1.082390188)
+ (0.8,1.0819752465)
+ (0.9,1.0819579445)
+ (1.0,1.0817029675)
+ (1.1,1.081916084)
+ (1.2,1.0816542875)
+ (1.3,1.081881345)
+ (1.4,1.0820459045)
+ (1.5,1.0818609655)
+ (1.6,1.08136863)
+ (1.7,1.0820011105)
+ (1.8,1.0820464035)
+ (1.9,1.082377756)
+ (2.0,1.082409424)
+ (2.1,1.0829994785)
+ (2.2,1.082961045)
+ (2.3,1.0834464385)
+ (2.4,1.083701314)
+ (2.5,1.0836489245)
+ (2.6,1.0842947105)
+ (2.7,1.084640472)
+ (2.8,1.0851187405)
+ (2.9,1.0854292905)
+ (3.0,1.085642772)
+ (3.1,1.086393202)
+ (3.2,1.0867174795)
+ (3.3,1.0873980035)
+ (3.4,1.087736714)
+ (3.5,1.0884941335)
+ (3.6,1.0893214355)
+ (3.7,1.0897579725)
+ (3.8,1.090466282)
+ (3.9,1.091363427)
+ (4.0,1.091925096)
+ (4.1,1.092961834)
+ (4.2,1.0933845625)
+ (4.3,1.0947704225)
+ (4.4,1.095743889)
+ (4.5,1.096550272)
+ (4.6,1.097105368)
+ (4.7,1.098253351)
+ (4.8,1.099660095)
+ (4.9,1.1007458105)
+ (5.0,1.101991486)
+ (5.1,1.1028465545)
+ (5.2,1.1041556505)
+ (5.3,1.1056108135)
+ (5.4,1.1067730615)
+ (5.5,1.108144559)
+ (5.6,1.1095863145)
+ (5.7,1.1110765195)
+ (5.8,1.112629731)
+ (5.9,1.114238563)
+ (6.0,1.115491484)
+ (6.1,1.1174913305)
+ (6.2,1.1191771205)
+ (6.3,1.1211492015)
+ (6.4,1.122967403)
+ (6.5,1.125337185)
+ (6.6,1.127022986)
+ (6.7,1.1290016025)
+ (6.8,1.1312252325)
+ (6.9,1.133392116)
+ (7.0,1.1354547505)
+ (7.1,1.1379010245)
+ (7.2,1.1403689955)
+ (7.3,1.1431012475)
+ (7.4,1.145645945)
+ (7.5,1.148154923)
+ (7.6,1.1510552285)
+ (7.7,1.1540811425)
+ (7.8,1.157588678)
+ (7.9,1.160516715)
+ (8.0,1.163821724)
+ (8.1,1.1672942585)
+ (8.2,1.17117143)
+ (8.3,1.175195702)
+ (8.4,1.1789053925)
+ (8.5,1.1835509565)
+ (8.6,1.1879095265)
+ (8.7,1.1924774395)
+ (8.8,1.1969829535)
+ (8.9,1.2022918615)
+ (9.0,1.207599667)
+ (9.1,1.213138264)
+ (9.2,1.219562628)
+ (9.3,1.225674259)
+ (9.4,1.231959481)
+ (9.5,1.239710459)
+ (9.6,1.247412469)
+ (9.7,1.2551780885)
+ (9.8,1.2642689355)
+ (9.9,1.274239777)
+ (10.0,1.284321971)
+ (10.1,1.295988867)
+ (10.2,1.308325138)
+ (10.3,1.323251922)
+ (10.4,1.3388481075)
+ (10.5,1.356928994)
+ (10.6,1.377571496)
+ (10.7,1.4005732915)
+ (10.8,1.4236935025)
+ (10.9,1.4396109515)
+ (11.0,1.445316699)
+ (11.1,1.4442735055)
+ (11.2,1.442497485)
+ (11.3,1.439583341)
+ (11.4,1.437402852)
+ (11.5,1.434823571)
+ (11.6,1.43204248)
+ (11.7,1.4295540125)
+ (11.8,1.426884728)
+ (11.9,1.4245502165)
+ (12.0,1.4222365355)
ERON_P13p5m13p5 NRON_P13p5m13p5 GND TABLE {V(SX,GND)} = 
+ (-13.5,1.479430836)
+ (-13.4,1.481321309)
+ (-13.3,1.4833371815)
+ (-13.2,1.4857300105)
+ (-13.1,1.4880874495)
+ (-13.0,1.4900751695)
+ (-12.9,1.492579714)
+ (-12.8,1.4948886235)
+ (-12.7,1.497714076)
+ (-12.6,1.499890273)
+ (-12.5,1.5020107285)
+ (-12.4,1.504054062)
+ (-12.3,1.504618044)
+ (-12.2,1.5010293445)
+ (-12.1,1.4899301555)
+ (-12.0,1.4750615385)
+ (-11.9,1.46061982)
+ (-11.8,1.4463031405)
+ (-11.7,1.4328789975)
+ (-11.6,1.4208102275)
+ (-11.5,1.409501735)
+ (-11.4,1.399114338)
+ (-11.3,1.388922891)
+ (-11.2,1.379407865)
+ (-11.1,1.370025987)
+ (-11.0,1.3616281805)
+ (-10.9,1.353118507)
+ (-10.8,1.3453068405)
+ (-10.7,1.3374045565)
+ (-10.6,1.330255839)
+ (-10.5,1.3228768495)
+ (-10.4,1.315993629)
+ (-10.3,1.309738267)
+ (-10.2,1.3040067965)
+ (-10.1,1.2972491275)
+ (-10.0,1.2912865215)
+ (-9.9,1.285457212)
+ (-9.8,1.2802210575)
+ (-9.7,1.274447758)
+ (-9.6,1.2691345485)
+ (-9.5,1.264736054)
+ (-9.4,1.2594791725)
+ (-9.3,1.254354268)
+ (-9.2,1.2501583105)
+ (-9.1,1.245278351)
+ (-9.0,1.2409492865)
+ (-8.9,1.2372276345)
+ (-8.8,1.233191973)
+ (-8.7,1.2285211395)
+ (-8.6,1.225155832)
+ (-8.5,1.221455046)
+ (-8.4,1.2176006805)
+ (-8.3,1.213614213)
+ (-8.2,1.2101853885)
+ (-8.1,1.2069177425)
+ (-8.0,1.2035732545)
+ (-7.9,1.200403004)
+ (-7.8,1.1972047445)
+ (-7.7,1.1940417975)
+ (-7.6,1.1913878705)
+ (-7.5,1.1881619035)
+ (-7.4,1.185284741)
+ (-7.3,1.1826310465)
+ (-7.2,1.179460956)
+ (-7.1,1.176737659)
+ (-7.0,1.174453689)
+ (-6.9,1.171988703)
+ (-6.8,1.1696631225)
+ (-6.7,1.167253801)
+ (-6.6,1.1649207925)
+ (-6.5,1.1622881875)
+ (-6.4,1.1601510295)
+ (-6.3,1.158356002)
+ (-6.2,1.1559536225)
+ (-6.1,1.1540189425)
+ (-6.0,1.1519374535)
+ (-5.9,1.1498768145)
+ (-5.8,1.147621159)
+ (-5.7,1.1455191055)
+ (-5.6,1.143967975)
+ (-5.5,1.1419493555)
+ (-5.4,1.1402662085)
+ (-5.3,1.1383311695)
+ (-5.2,1.136787408)
+ (-5.1,1.135173846)
+ (-5.0,1.1335112495)
+ (-4.9,1.1319323665)
+ (-4.8,1.1307935705)
+ (-4.7,1.1290888935)
+ (-4.6,1.1276495)
+ (-4.5,1.125679787)
+ (-4.4,1.1244363325)
+ (-4.3,1.12302494)
+ (-4.2,1.121739147)
+ (-4.1,1.120683721)
+ (-4.0,1.1190005595)
+ (-3.9,1.117979707)
+ (-3.8,1.1165964155)
+ (-3.7,1.11568808)
+ (-3.6,1.1145626225)
+ (-3.5,1.1132562785)
+ (-3.4,1.112556889)
+ (-3.3,1.111257226)
+ (-3.2,1.1105788955)
+ (-3.1,1.1094746335)
+ (-3.0,1.107854008)
+ (-2.9,1.1072593765)
+ (-2.8,1.1060711905)
+ (-2.7,1.1053161185)
+ (-2.6,1.1041420525)
+ (-2.5,1.103261544)
+ (-2.4,1.102792045)
+ (-2.3,1.1018489405)
+ (-2.2,1.101135437)
+ (-2.1,1.1003384015)
+ (-2.0,1.0995270945)
+ (-1.9,1.0986531975)
+ (-1.8,1.0984847175)
+ (-1.7,1.0976179015)
+ (-1.6,1.096848599)
+ (-1.5,1.095974723)
+ (-1.4,1.095386636)
+ (-1.3,1.094750371)
+ (-1.2,1.093995218)
+ (-1.1,1.0933587625)
+ (-1.0,1.09288981)
+ (-0.9,1.092490225)
+ (-0.8,1.0923913305)
+ (-0.7,1.0919086635)
+ (-0.6,1.091746644)
+ (-0.5,1.091144711)
+ (-0.4,1.090815414)
+ (-0.3,1.0903952565)
+ (-0.2,1.0898983885)
+ (-0.1,1.0899179855)
+ (0.0,1.0895466755)
+ (0.1,1.0891682435)
+ (0.2,1.088713039)
+ (0.3,1.0888723065)
+ (0.4,1.0884730365)
+ (0.5,1.088115595)
+ (0.6,1.088519292)
+ (0.7,1.087931371)
+ (0.8,1.087769655)
+ (0.9,1.087789023)
+ (1.0,1.0874943255)
+ (1.1,1.0874440445)
+ (1.2,1.087428999)
+ (1.3,1.0872391)
+ (1.4,1.08709097)
+ (1.5,1.087110681)
+ (1.6,1.0870673665)
+ (1.7,1.087519776)
+ (1.8,1.087385694)
+ (1.9,1.087363012)
+ (2.0,1.087669048)
+ (2.1,1.0876746675)
+ (2.2,1.0879733575)
+ (2.3,1.0884679805)
+ (2.4,1.088501094)
+ (2.5,1.088381268)
+ (2.6,1.088973194)
+ (2.7,1.0889227605)
+ (2.8,1.089709697)
+ (2.9,1.08977874)
+ (3.0,1.0899166705)
+ (3.1,1.0903620325)
+ (3.2,1.0906118915)
+ (3.3,1.0910223085)
+ (3.4,1.0914747845)
+ (3.5,1.0918852055)
+ (3.6,1.0924911735)
+ (3.7,1.0927964925)
+ (3.8,1.093158072)
+ (3.9,1.093910502)
+ (4.0,1.09432048)
+ (4.1,1.0948151695)
+ (4.2,1.0957139645)
+ (4.3,1.0962989455)
+ (4.4,1.096786183)
+ (4.5,1.097573387)
+ (4.6,1.098619113)
+ (4.7,1.099217848)
+ (4.8,1.099789181)
+ (4.9,1.100757566)
+ (5.0,1.1015731675)
+ (5.1,1.101941107)
+ (5.2,1.103294155)
+ (5.3,1.1042486605)
+ (5.4,1.105260002)
+ (5.5,1.1062912985)
+ (5.6,1.10763717)
+ (5.7,1.1084941095)
+ (5.8,1.1092111555)
+ (5.9,1.1106618905)
+ (6.0,1.111979905)
+ (6.1,1.1132417095)
+ (6.2,1.1142664495)
+ (6.3,1.1153746885)
+ (6.4,1.1165806785)
+ (6.5,1.1181844755)
+ (6.6,1.119153455)
+ (6.7,1.1205341635)
+ (6.8,1.1223610915)
+ (6.9,1.124119009)
+ (7.0,1.125827685)
+ (7.1,1.1274595745)
+ (7.2,1.1288957945)
+ (7.3,1.1310095015)
+ (7.4,1.132362046)
+ (7.5,1.134335704)
+ (7.6,1.136218961)
+ (7.7,1.1379907285)
+ (7.8,1.1400275255)
+ (7.9,1.142364111)
+ (8.0,1.1442823565)
+ (8.1,1.146821374)
+ (8.2,1.1490117005)
+ (8.3,1.151460129)
+ (8.4,1.153803667)
+ (8.5,1.1558824885)
+ (8.6,1.1589173295)
+ (8.7,1.161735565)
+ (8.8,1.1646166355)
+ (8.9,1.1675398245)
+ (9.0,1.17045625)
+ (9.1,1.173309019)
+ (9.2,1.1766301005)
+ (9.3,1.1799093775)
+ (9.4,1.183481558)
+ (9.5,1.1868304485)
+ (9.6,1.190605171)
+ (9.7,1.1947913925)
+ (9.8,1.1990753235)
+ (9.9,1.203618283)
+ (10.0,1.208027869)
+ (10.1,1.2123189855)
+ (10.2,1.217356899)
+ (10.3,1.222652698)
+ (10.4,1.227956225)
+ (10.5,1.2327779535)
+ (10.6,1.239414039)
+ (10.7,1.2454571645)
+ (10.8,1.2523516905)
+ (10.9,1.2596440405)
+ (11.0,1.266978088)
+ (11.1,1.275233577)
+ (11.2,1.284229582)
+ (11.3,1.2933504725)
+ (11.4,1.303818759)
+ (11.5,1.3146154365)
+ (11.6,1.326346135)
+ (11.7,1.339439146)
+ (11.8,1.354318287)
+ (11.9,1.370838082)
+ (12.0,1.390149587)
+ (12.1,1.411484739)
+ (12.2,1.4360868175)
+ (12.3,1.460556114)
+ (12.4,1.47861154)
+ (12.5,1.485066007)
+ (12.6,1.4849459335)
+ (12.7,1.482746352)
+ (12.8,1.4802040605)
+ (12.9,1.4777878475)
+ (13.0,1.475301347)
+ (13.1,1.4725433755)
+ (13.2,1.4697574025)
+ (13.3,1.4673479295)
+ (13.4,1.4651131535)
+ (13.5,1.462417165)
ERON_P15p0m15p0 NRON_P15p0m15p0 GND TABLE {V(SX,GND)} = 
+ (-15.0,1.419077918)
+ (-14.9,1.421302726)
+ (-14.8,1.422404403)
+ (-14.7,1.4247691095)
+ (-14.6,1.4265818995)
+ (-14.5,1.428569699)
+ (-14.4,1.4306899965)
+ (-14.3,1.4322246995)
+ (-14.2,1.4341005585)
+ (-14.1,1.436451381)
+ (-14.0,1.437999841)
+ (-13.9,1.439994417)
+ (-13.8,1.440440067)
+ (-13.7,1.4363624085)
+ (-13.6,1.4259541265)
+ (-13.5,1.412663848)
+ (-13.4,1.398821299)
+ (-13.3,1.385830816)
+ (-13.2,1.3736706235)
+ (-13.1,1.362396885)
+ (-13.0,1.351884453)
+ (-12.9,1.342195268)
+ (-12.8,1.332715246)
+ (-12.7,1.323828283)
+ (-12.6,1.315360791)
+ (-12.5,1.307235046)
+ (-12.4,1.2992768005)
+ (-12.3,1.2921146035)
+ (-12.2,1.284644984)
+ (-12.1,1.277949662)
+ (-12.0,1.2711847155)
+ (-11.9,1.2649368875)
+ (-11.8,1.258430707)
+ (-11.7,1.2522658975)
+ (-11.6,1.2468340125)
+ (-11.5,1.2411235845)
+ (-11.4,1.2360130245)
+ (-11.3,1.2307489735)
+ (-11.2,1.225463893)
+ (-11.1,1.220436968)
+ (-11.0,1.215542869)
+ (-10.9,1.211045782)
+ (-10.8,1.2067040585)
+ (-10.7,1.2019146805)
+ (-10.6,1.197725152)
+ (-10.5,1.193536064)
+ (-10.4,1.1894447)
+ (-10.3,1.185359614)
+ (-10.2,1.181666435)
+ (-10.1,1.1776374655)
+ (-10.0,1.174292756)
+ (-9.9,1.170969)
+ (-9.8,1.1673590925)
+ (-9.7,1.163896236)
+ (-9.6,1.160600179)
+ (-9.5,1.157332102)
+ (-9.4,1.1540644005)
+ (-9.3,1.1509500405)
+ (-9.2,1.1480523275)
+ (-9.1,1.145035521)
+ (-9.0,1.142514598)
+ (-8.9,1.1391838)
+ (-8.8,1.137046962)
+ (-8.7,1.133792638)
+ (-8.6,1.131439458)
+ (-8.5,1.128897148)
+ (-8.4,1.1265715475)
+ (-8.3,1.124008687)
+ (-8.2,1.121543565)
+ (-8.1,1.119559828)
+ (-8.0,1.1174717045)
+ (-7.9,1.1150619185)
+ (-7.8,1.1127783295)
+ (-7.7,1.1110601595)
+ (-7.6,1.10872051)
+ (-7.5,1.1063249945)
+ (-7.4,1.1046345895)
+ (-7.3,1.102748797)
+ (-7.2,1.100387669)
+ (-7.1,1.098732803)
+ (-7.0,1.097153698)
+ (-6.9,1.095435442)
+ (-6.8,1.0938077495)
+ (-6.7,1.091845117)
+ (-6.6,1.089994165)
+ (-6.5,1.088219909)
+ (-6.4,1.086906126)
+ (-6.3,1.085320076)
+ (-6.2,1.0842163225)
+ (-6.1,1.082232688)
+ (-6.0,1.080723303)
+ (-5.9,1.0794725015)
+ (-5.8,1.0778240325)
+ (-5.7,1.076566833)
+ (-5.6,1.0749945915)
+ (-5.5,1.0740860615)
+ (-5.4,1.0725631385)
+ (-5.3,1.0713752485)
+ (-5.2,1.069921637)
+ (-5.1,1.068964412)
+ (-5.0,1.0678951655)
+ (-4.9,1.0663721865)
+ (-4.8,1.0651909345)
+ (-4.7,1.0642544455)
+ (-4.6,1.063276032)
+ (-4.5,1.062115916)
+ (-4.4,1.061172563)
+ (-4.3,1.0603126085)
+ (-4.2,1.059180038)
+ (-4.1,1.058075927)
+ (-4.0,1.0571254795)
+ (-3.9,1.056405047)
+ (-3.8,1.0549307575)
+ (-3.7,1.054294376)
+ (-3.6,1.053399914)
+ (-3.5,1.0522675935)
+ (-3.4,1.051959151)
+ (-3.3,1.050917832)
+ (-3.2,1.0500786765)
+ (-3.1,1.049386289)
+ (-3.0,1.0486454775)
+ (-2.9,1.04763865)
+ (-2.8,1.0472394095)
+ (-2.7,1.0462466835)
+ (-2.6,1.0460012965)
+ (-2.5,1.045322727)
+ (-2.4,1.0447492335)
+ (-2.3,1.0436660095)
+ (-2.2,1.043496995)
+ (-2.1,1.0428257845)
+ (-2.0,1.042070341)
+ (-1.9,1.0411197325)
+ (-1.8,1.04106923)
+ (-1.7,1.0401537135)
+ (-1.6,1.0399427665)
+ (-1.5,1.0392576575)
+ (-1.4,1.0390470995)
+ (-1.3,1.0386755925)
+ (-1.2,1.0382135705)
+ (-1.1,1.03781434)
+ (-1.0,1.0376736205)
+ (-0.9,1.036834151)
+ (-0.8,1.0364768755)
+ (-0.7,1.036084817)
+ (-0.6,1.0361043055)
+ (-0.5,1.035460777)
+ (-0.4,1.0351453815)
+ (-0.3,1.0350672895)
+ (-0.2,1.0345770495)
+ (-0.1,1.0340942095)
+ (0.0,1.033897363)
+ (0.1,1.0336725015)
+ (0.2,1.033175809)
+ (0.3,1.0334046645)
+ (0.4,1.0332911965)
+ (0.5,1.032885067)
+ (0.6,1.032793055)
+ (0.7,1.032868619)
+ (0.8,1.032993311)
+ (0.9,1.032767935)
+ (1.0,1.032969026)
+ (1.1,1.032563076)
+ (1.2,1.033050436)
+ (1.3,1.032902069)
+ (1.4,1.0326356185)
+ (1.5,1.032780656)
+ (1.6,1.0323398865)
+ (1.7,1.0325546505)
+ (1.8,1.0326368445)
+ (1.9,1.0329007795)
+ (2.0,1.032362125)
+ (2.1,1.0330096795)
+ (2.2,1.03323179)
+ (2.3,1.0330836535)
+ (2.4,1.033410239)
+ (2.5,1.0335761725)
+ (2.6,1.0339448725)
+ (2.7,1.0336436055)
+ (2.8,1.0340260645)
+ (2.9,1.034296517)
+ (3.0,1.034630708)
+ (3.1,1.0347480945)
+ (3.2,1.034878961)
+ (3.3,1.035429004)
+ (3.4,1.0361395445)
+ (3.5,1.03581708)
+ (3.6,1.036318521)
+ (3.7,1.036337598)
+ (3.8,1.0367905315)
+ (3.9,1.037130779)
+ (4.0,1.0375481025)
+ (4.1,1.037951439)
+ (4.2,1.0381176105)
+ (4.3,1.0386954895)
+ (4.4,1.0395737555)
+ (4.5,1.03987254)
+ (4.6,1.040303733)
+ (4.7,1.0411187405)
+ (4.8,1.0417530685)
+ (4.9,1.042086424)
+ (5.0,1.042706282)
+ (5.1,1.0431795745)
+ (5.2,1.04372232)
+ (5.3,1.0444889905)
+ (5.4,1.0451087155)
+ (5.5,1.0456028585)
+ (5.6,1.0462504675)
+ (5.7,1.0472962105)
+ (5.8,1.0479926505)
+ (5.9,1.049122053)
+ (6.0,1.049958441)
+ (6.1,1.050689664)
+ (6.2,1.051169848)
+ (6.3,1.0518315575)
+ (6.4,1.05290507)
+ (6.5,1.053775735)
+ (6.6,1.0550102865)
+ (6.7,1.0557555035)
+ (6.8,1.0565292525)
+ (6.9,1.0580492865)
+ (7.0,1.0588015555)
+ (7.1,1.0601684635)
+ (7.2,1.0611229825)
+ (7.3,1.062503458)
+ (7.4,1.063737714)
+ (7.5,1.064762202)
+ (7.6,1.0665965095)