* TMUX136
*****************************************************************************
* (C) Copyright 2012 Texas Instruments Incorporated. All rights reserved.                                            
*****************************************************************************
** This model is designed as an aid for customers of Texas Instruments.
** TI and its licensors and suppliers make no warranties, either expressed
** or implied, with respect to this model, including the warranties of 
** merchantability or fitness for a particular purpose.  The model is
** provided solely on an "as is" basis.  The entire risk as to its quality
** and performance is with the customer.
*****************************************************************************
*
** Released by: WEBENCH(R) Design Center, Texas Instruments Inc.
* Part: TMUX136
* Date: 06/13/2018
* Model Type: All In One
* Simulator: Pspice
* Simulator Version: 16.2
* EVM Order Number: N/A 
* EVM Users Guide: N/A
* Datasheet: SCDS367B - November 2017
*
* Model Version: 2.0
*
*****************************************************************************
*
* Updates:
*
* Version 1.0 : Release to Web
* Version 2.0 : Correct subcircuit names
*  
*
*****************************************************************************
* Notes: 
* 1. This model conforms to the following datasheet parameters:
* 2. IQ@5V, Cin for Ports A & B, BW, Switching Time, Enable Time
* 3. Disable Time, Propagation Delay, Off Isolation
* 4. The model has ideal crosstalk
*****************************************************************************
*
*$
.SUBCKT TMUX136 COM1 A1 B1 COM2 A2 B2 SEL ENZ VCC GND
T_T1         SELINT1 0 SELINT2 0 Z0=50 TD=600n  
X_U3         CNTRLA CNTRLB SELD ENZINT GND TMUX136_DIGITAL 
R_R4         ENZ_N1 N292085  10 TC=0,0 
C_U1_C10         GND A2  0.31p  TC=0,0 
C_U1_C2         GND U1_N17516  0.9p  TC=0,0 
C_U1_C7         U1_N15062 U1_N15070  0.5p  TC=0,0 
C_U1_C11         U1_N17218 U1_N17226  0.5p  TC=0,0 
L_U1_L4         U1_N17218 A2  1.8nH  
C_U1_C8         GND COM2  0.1p  TC=0,0 
R_U1_R2         GND COM2  10e6 TC=0,0 
C_U1_C1         GND U1_N15572  0.9p  TC=0,0 
R_U1_R4         GND A1  10e6 TC=0,0 
L_U1_L3         U1_N15062 A1  1.8nH  
R_U1_R7         GND A2  10e6 TC=0,0 
C_U1_C5         U1_N15070 COM1  0.5p  TC=0,0 
R_U1_R6         0 U1_N17226  1e4 TC=0,0 
R_U1_R5         0 U1_N15070  1e4 TC=0,0 
C_U1_C9         U1_N17226 COM2  0.5p  TC=0,0 
X_U1_S3    CNTRLA GND A1 U1_N15572 PORTA_U1_S3 
X_U1_S2    CNTRLA GND COM2 U1_N17218 PORTA_U1_S2 
C_U1_C4         GND COM1  0.1p  TC=0,0 
X_U1_S4    CNTRLA GND A2 U1_N17516 PORTA_U1_S4 
X_U1_S1    CNTRLA GND COM1 U1_N15062 PORTA_U1_S1 
R_U1_R1         GND COM1  10e6 TC=0,0 
C_U1_C6         GND A1  0.31p  TC=0,0 
L_U2_L2         U2_N20458 B2  1.8nH  
C_U2_C9         U2_N20466 COM2  0.5p  TC=0,0 
C_U2_C5         U2_N13348 COM1  0.5p  TC=0,0 
X_U2_S1    CNTRLB GND COM1 U2_N05358 PORTB_U2_S1 
L_U2_L1         U2_N05358 B1  1.8nH  
X_U2_S2    CNTRLB GND COM2 U2_N20458 PORTB_U2_S2 
X_U2_S4    CNTRLB GND B2 U2_N20756 PORTB_U2_S4 
C_U2_C7         U2_N05358 U2_N13348  0.5p  TC=0,0 
C_U2_C4         GND COM1  0.1p  TC=0,0 
C_U2_C10         GND B2  0.45p  TC=0,0 
C_U2_C2         GND U2_N20756  0.58p  TC=0,0 
C_U2_C11         U2_N20458 U2_N20466  0.5p  TC=0,0 
R_U2_R1         GND COM1  10e6 TC=0,0 
C_U2_C8         GND COM2  0.1p  TC=0,0 
R_U2_R2         GND COM2  10e6 TC=0,0 
X_U2_S3    CNTRLB GND B1 U2_N09818 PORTB_U2_S3 
R_U2_R5         0 U2_N13348  1e4 TC=0,0 
C_U2_C6         GND B1  0.45p  TC=0,0 
R_U2_R7         GND B2  10e6 TC=0,0 
R_U2_R6         0 U2_N20466  1e4 TC=0,0 
R_U2_R4         GND B1  10e6 TC=0,0 
C_U2_C1         GND U2_N09818  0.58p  TC=0,0 
D_D2         N292085 ENZ_N2 DZ 
V_V1         N288827 GND 1Vdc
X_S1    ENZ GND VCC GND DEV_SCH_S1 
R_R3         N13847 SELINT1  50 TC=0,0 
C_C1         SEL GND  2.2p  TC=0,0 
R_R5         0 SELINT2  50 TC=0,0 
R_R1         SEL GND  10e6 TC=0,0 
E_E3         SELD 0 SELINT2 0 1
C_C3         0 ENZ_N2  12n  TC=0,0 
X_U4         ENZ_N2 N288827 ENZINT 0 TMUX136_COMPARATOR 
C_C2         ENZ GND  2.2p  TC=0,0 
R_R6         ENZ_N1 ENZ_N2  12k TC=0,0 
R_R2         ENZ GND  10e6 TC=0,0 
E_E1         N13847 0 SEL 0 2
E_E2         ENZ_N1 0 ENZ 0 1
.ENDS
*$
.MODEL DZ D
*$
******
*    *
******
.subckt PORTA_U1_S3 1 2 3 4  
S_U1_S3         3 4 1 2 _U1_S3
RS_U1_S3         1 2 1G
.MODEL         _U1_S3 VSWITCH Roff=100e6 Ron=1m Voff=1.0V Von=0.0V
.ends
*$
******
*    *
******
.subckt PORTA_U1_S2 1 2 3 4  
S_U1_S2         3 4 1 2 _U1_S2
RS_U1_S2         1 2 1G
.MODEL         _U1_S2 VSWITCH Roff=100e6 Ron=5.7 Voff=0.0V Von=1.0V
.ends
*$
******
*    *
******
.subckt PORTA_U1_S4 1 2 3 4  
S_U1_S4         3 4 1 2 _U1_S4
RS_U1_S4         1 2 1G
.MODEL         _U1_S4 VSWITCH Roff=100e6 Ron=1m Voff=1.0V Von=0.0V
.ends
*$
******
*    *
******
.subckt PORTA_U1_S1 1 2 3 4  
S_U1_S1         3 4 1 2 _U1_S1
RS_U1_S1         1 2 1G
.MODEL         _U1_S1 VSWITCH Roff=100e6 Ron=5.7 Voff=0.0V Von=1.0V
.ends
*$
******
*    *
******
.subckt PORTB_U2_S1 1 2 3 4  
S_U2_S1         3 4 1 2 _U2_S1
RS_U2_S1         1 2 1G
.MODEL         _U2_S1 VSWITCH Roff=100e6 Ron=4.6 Voff=0.0V Von=1.0V
.ends
*$
******
*    *
******
.subckt PORTB_U2_S2 1 2 3 4  
S_U2_S2         3 4 1 2 _U2_S2
RS_U2_S2         1 2 1G
.MODEL         _U2_S2 VSWITCH Roff=100e6 Ron=4.6 Voff=0.0V Von=1.0V
.ends
*$
******
*    *
******
.subckt PORTB_U2_S4 1 2 3 4  
S_U2_S4         3 4 1 2 _U2_S4
RS_U2_S4         1 2 1G
.MODEL         _U2_S4 VSWITCH Roff=100e6 Ron=1m Voff=1.0V Von=0V
.ends
*$
.subckt PORTB_U2_S3 1 2 3 4  
S_U2_S3         3 4 1 2 _U2_S3
RS_U2_S3         1 2 1G
.MODEL         _U2_S3 VSWITCH Roff=100e6 Ron=1m Voff=1.0V Von=0V
.ends
*$
******
*    *
******
.subckt DEV_SCH_S1 1 2 3 4  
S_S1         3 4 1 2 _S1
RS_S1         1 2 1G
.MODEL         _S1 VSWITCH Roff=1e6 Ron=160k Voff=1.0V Von=0.0V
.ends
*$
******
*    *
******
.SUBCKT TMUX136_DIGITAL CNTRLA CNTRLB SEL ENZ GND
****
.PARAM VIH = 1.3
.PARAM VIL = 0.6
.PARAM VTHR = {0.5*(VIH + VIL)}
****
ESEL NSEL GND VALUE = {0.5*(1 + SGN(V(SEL,GND) - VTHR))}
EENZ NENZ GND VALUE = {0.5*(1 + SGN(V(ENZ,GND) - VTHR))}
****
ECA CNTRLA GND VALUE = {(1 - V(NENZ,GND))*(1 - V(NSEL,GND))}
ECB CNTRLB GND VALUE = {(1 - V(NENZ,GND))*(V(NSEL,GND))}
****
.ENDS
*$
******
*    *
******
.SUBCKT TMUX136_COMPARATOR  INP INN OUT GND
.PARAM VHI = 2
.PARAM VLOW = 0
EOUT OUT GND VALUE = {VHI*0.5*(1+ (SGN(V(INP,INN)) - ABS(SGN(V(INP,INN))) + 1))}
.ENDS
*$
