.SUBCKT TMUX7234 SEL1 S1A D1 S1B VSS GND S2B D2 S2A SEL2 SEL3 S3A D3 S3B EN VDD S4B D4 S4A SEL4 
*Supply currents
X_U1    VSS GND I_VSS
X_U2    VDD GND I_VDD
*I/O diodes
X_U3    VSS S1A ESD_diode
X_U4    S1A VDD ESD_diode
X_U5    VSS D1 ESD_diode
X_U6    D1 VDD ESD_diode
X_U7    VSS S1B ESD_diode
X_U8    S1B VDD ESD_diode
X_U9    VSS S2B ESD_diode
X_U10    S2B VDD ESD_diode
X_U11    VSS D2 ESD_diode
X_U12    D2 VDD ESD_diode
X_U13    VSS S2A ESD_diode
X_U14    S2A VDD ESD_diode
X_U15    VSS S3A ESD_diode
X_U16    S3A VDD ESD_diode
X_U17    VSS D3 ESD_diode
X_U18    D3 VDD ESD_diode
X_U19    VSS S3B ESD_diode
X_U20    S3B VDD ESD_diode
X_U21    VSS S4B ESD_diode
X_U22    S4B VDD ESD_diode
X_U23    VSS D4 ESD_diode
X_U24    D4 VDD ESD_diode
X_U25    VSS S4A ESD_diode
X_U26    S4A VDD ESD_diode
*Comparators (VIH/VIL)
X_U27    VDD_L VDD VDD_NL GND COMPARATOR_VDD
X_U28    EN_L EN EN_NL GND COMPARATOR_EN
X_U29    SEL1_L SEL1 SEL1_NL GND COMPARATOR_SEL1
X_U30    SEL2_L SEL2 SEL2_NL GND COMPARATOR_SEL2
X_U31    SEL3_L SEL3 SEL3_NL GND COMPARATOR_SEL3
X_U32    SEL4_L SEL4 SEL4_NL GND COMPARATOR_SEL4
*Input delays
X_U33    VDD_NL VDD GND VDD_L Delay_VDD
R1    VDD_L  GND    50
X_U34    EN_NL VDD GND EN_L Delay_EN
R2    EN_L  GND    50
X_U35    SEL1_NL VDD GND SEL1_L Delay_SEL1
R3    SEL1_L  GND    50
X_U36    SEL2_NL VDD GND SEL2_L Delay_SEL2
R4    SEL2_L  GND    50
X_U37    SEL3_NL VDD GND SEL3_L Delay_SEL3
R5    SEL3_L  GND    50
X_U38    SEL4_NL VDD GND SEL4_L Delay_SEL4
R6    SEL4_L  GND    50
*LOGIC
X_U39    VDD_L EN_L SEL1_L SEL2_L SEL3_L SEL4_L SW_S1A_L SW_S1B_L SW_S2A_L SW_S2B_L SW_S3A_L SW_S3B_L SW_S4A_L SW_S4B_L SW_D1_L SW_D2_L SW_D3_L SW_D4_L SW_S1AD1_L SW_S1BD1_L SW_S2AD2_L SW_S2BD2_L SW_S3AD3_L 
+ SW_S3BD3_L SW_S4AD4_L SW_S4BD4_L GND LOGIC
*Output delays
X_U40    SW_S1A_L VDD GND SW_S1A Delay_SW_S1A
X_U41    SW_S1B_L VDD GND SW_S1B Delay_SW_S1B
X_U42    SW_S2A_L VDD GND SW_S2A Delay_SW_S2A
X_U43    SW_S2B_L VDD GND SW_S2B Delay_SW_S2B
X_U44    SW_S3A_L VDD GND SW_S3A Delay_SW_S3A
X_U45    SW_S3B_L VDD GND SW_S3B Delay_SW_S3B
X_U46    SW_S4A_L VDD GND SW_S4A Delay_SW_S4A
X_U47    SW_S4B_L VDD GND SW_S4B Delay_SW_S4B
X_U48    SW_D1_L VDD GND SW_D1 Delay_SW_D1
X_U49    SW_D2_L VDD GND SW_D2 Delay_SW_D2
X_U50    SW_D3_L VDD GND SW_D3 Delay_SW_D3
X_U51    SW_D4_L VDD GND SW_D4 Delay_SW_D4
X_U52    SW_S1AD1_L VDD GND SW_S1AD1 Delay_SW_S1AD1
X_U53    SW_S1BD1_L VDD GND SW_S1BD1 Delay_SW_S1BD1
X_U54    SW_S2AD2_L VDD GND SW_S2AD2 Delay_SW_S2AD2
X_U55    SW_S2BD2_L VDD GND SW_S2BD2 Delay_SW_S2BD2
X_U56    SW_S3AD3_L VDD GND SW_S3AD3 Delay_SW_S3AD3
X_U57    SW_S3BD3_L VDD GND SW_S3BD3 Delay_SW_S3BD3
X_U58    SW_S4AD4_L VDD GND SW_S4AD4 Delay_SW_S4AD4
X_U59    SW_S4BD4_L VDD GND SW_S4BD4 Delay_SW_S4BD4
*Switch I/O (COFF, CON, ION, IOFF, BW)
X_U60    D1 VSS VDD SW_D1 GND D1_IO
X_U61    D2 VSS VDD SW_D2 GND D2_IO
X_U62    D3 VSS VDD SW_D3 GND D3_IO
X_U63    D4 VSS VDD SW_D4 GND D4_IO
X_U64    S1A VSS VDD SW_S1A GND S1A_IO
X_U65    S1B VSS VDD SW_S1B GND S1B_IO
X_U66    S2A VSS VDD SW_S2A GND S2A_IO
X_U67    S2B VSS VDD SW_S2B GND S2B_IO
X_U68    S3A VSS VDD SW_S3A GND S3A_IO
X_U69    S3B VSS VDD SW_S3B GND S3B_IO
X_U70    S4A VSS VDD SW_S4A GND S4A_IO
X_U71    S4B VSS VDD SW_S4B GND S4B_IO
*Switch blocks (Ron, OISO)
X_U72    S1A D1 VSS VDD GND SW_S1AD1 SWITCH_S1A
X_U73    S1B D1 VSS VDD GND SW_S1BD1 SWITCH_S1B
X_U74    S2A D2 VSS VDD GND SW_S2AD2 SWITCH_S2A
X_U75    S2B D2 VSS VDD GND SW_S2BD2 SWITCH_S2B
X_U76    S3A D3 VSS VDD GND SW_S3AD3 SWITCH_S3A
X_U77    S3B D3 VSS VDD GND SW_S3BD3 SWITCH_S3B
X_U78    S4A D4 VSS VDD GND SW_S4AD4 SWITCH_S4A
X_U79    S4B D4 VSS VDD GND SW_S4BD4 SWITCH_S4B
*switch to switch capacitance (XTALK)
C1 S1A S1B 1.5228937908857968e-14
C2 S1A S2B 1.5228937908857968e-14
C3 S1A S2A 1.5228937908857968e-14
C4 S1A S3A 1.5228937908857968e-14
C5 S1A S3B 1.5228937908857968e-14
C6 S1A S4B 1.5228937908857968e-14
C7 S1A S4A 1.5228937908857968e-14
C8 S1B S2B 1.5228937908857968e-14
C9 S1B S2A 1.5228937908857968e-14
C10 S1B S3A 1.5228937908857968e-14
C11 S1B S3B 1.5228937908857968e-14
C12 S1B S4B 1.5228937908857968e-14
C13 S1B S4A 1.5228937908857968e-14
C14 S2B S2A 1.5228937908857968e-14
C15 S2B S3A 1.5228937908857968e-14
C16 S2B S3B 1.5228937908857968e-14
C17 S2B S4B 1.5228937908857968e-14
C18 S2B S4A 1.5228937908857968e-14
C19 S2A S3A 1.5228937908857968e-14
C20 S2A S3B 1.5228937908857968e-14
C21 S2A S4B 1.5228937908857968e-14
C22 S2A S4A 1.5228937908857968e-14
C23 S3A S3B 1.5228937908857968e-14
C24 S3A S4B 1.5228937908857968e-14
C25 S3A S4A 1.5228937908857968e-14
C26 S3B S4B 1.5228937908857968e-14
C27 S3B S4A 1.5228937908857968e-14
C28 S4B S4A 1.5228937908857968e-14
C29 D1 D2 1.5228937908857968e-14
C30 D1 D3 1.5228937908857968e-14
C31 D1 D4 1.5228937908857968e-14
C32 D2 D3 1.5228937908857968e-14
C33 D2 D4 1.5228937908857968e-14
C34 D3 D4 1.5228937908857968e-14
*Charge injection blocks (Qc)
X_U80    S1A VSS VDD D1 SW_S1AD1 GND GND QC_S1A
X_U81    S1B VSS VDD D1 SW_S1BD1 GND GND QC_S1B
X_U82    S2A VSS VDD D2 SW_S2AD2 GND GND QC_S2A
X_U83    S2B VSS VDD D2 SW_S2BD2 GND GND QC_S2B
X_U84    S3A VSS VDD D3 SW_S3AD3 GND GND QC_S3A
X_U85    S3B VSS VDD D3 SW_S3BD3 GND GND QC_S3B
X_U86    S4A VSS VDD D4 SW_S4AD4 GND GND QC_S4A
X_U87    S4B VSS VDD D4 SW_S4BD4 GND GND QC_S4B
.ENDS TMUX7234 
*$
*These circuits add a series diode that simulates an ESD diode from IN (-) to OUT (+)
*This diode will not cause a failure when IN > OUT but may show a large increase in current consumption 
*$
