.SUBCKT TMUX8213 S1 D1 SEL1 VSS GND SEL4 D4 S4 S3 D3 SEL3 NC VDD SEL2 D2 S2 
*Supply currents
X_U1    VSS GND I_VSS
X_U2    VDD GND I_VDD
*I/O diodes
X_U3    VSS S1 ESD_diode
X_U4    S1 VDD ESD_diode
X_U5    VSS S2 ESD_diode
X_U6    S2 VDD ESD_diode
X_U7    VSS S3 ESD_diode
X_U8    S3 VDD ESD_diode
X_U9    VSS S4 ESD_diode
X_U10    S4 VDD ESD_diode
X_U11    VSS D1 ESD_diode
X_U12    D1 VDD ESD_diode
X_U13    VSS D2 ESD_diode
X_U14    D2 VDD ESD_diode
X_U15    VSS D3 ESD_diode
X_U16    D3 VDD ESD_diode
X_U17    VSS D4 ESD_diode
X_U18    D4 VDD ESD_diode
*Comparators (VIH/VIL)
X_U19    VDD_L VDD VDD_NL GND COMPARATOR_VDD
X_U20    SEL1_L SEL1 SEL1_NL GND COMPARATOR_SEL1
X_U21    SEL2_L SEL2 SEL2_NL GND COMPARATOR_SEL2
X_U22    SEL3_L SEL3 SEL3_NL GND COMPARATOR_SEL3
X_U23    SEL4_L SEL4 SEL4_NL GND COMPARATOR_SEL4
*Input delays
X_U24    VDD_NL VDD GND VDD_L Delay_VDD
R1    VDD_L  GND    50
X_U25    SEL1_NL VDD GND SEL1_L Delay_SEL1
R2    SEL1_L  GND    50
X_U26    SEL2_NL VDD GND SEL2_L Delay_SEL2
R3    SEL2_L  GND    50
X_U27    SEL3_NL VDD GND SEL3_L Delay_SEL3
R4    SEL3_L  GND    50
X_U28    SEL4_NL VDD GND SEL4_L Delay_SEL4
R5    SEL4_L  GND    50
*LOGIC
X_U29    VDD_L SEL1_L SEL2_L SEL3_L SEL4_L SW_S1_L SW_D1_L SW_S1D1_L SW_S2_L SW_D2_L SW_S2D2_L SW_S3_L SW_D3_L SW_S3D3_L SW_S4_L SW_D4_L SW_S4D4_L GND LOGIC
*Output delays
X_U30    SW_S1_L VDD GND SW_S1 Delay_SW_S1
X_U31    SW_D1_L VDD GND SW_D1 Delay_SW_D1
X_U32    SW_S1D1_L VDD GND SW_S1D1 Delay_SW_S1D1
X_U33    SW_S2_L VDD GND SW_S2 Delay_SW_S2
X_U34    SW_D2_L VDD GND SW_D2 Delay_SW_D2
X_U35    SW_S2D2_L VDD GND SW_S2D2 Delay_SW_S2D2
X_U36    SW_S3_L VDD GND SW_S3 Delay_SW_S3
X_U37    SW_D3_L VDD GND SW_D3 Delay_SW_D3
X_U38    SW_S3D3_L VDD GND SW_S3D3 Delay_SW_S3D3
X_U39    SW_S4_L VDD GND SW_S4 Delay_SW_S4
X_U40    SW_D4_L VDD GND SW_D4 Delay_SW_D4
X_U41    SW_S4D4_L VDD GND SW_S4D4 Delay_SW_S4D4
*Switch I/O (COFF, CON, ION, IOFF, BW)
X_U42    S1 VSS VDD SW_S1 GND S1_IO
X_U43    S2 VSS VDD SW_S2 GND S2_IO
X_U44    S3 VSS VDD SW_S3 GND S3_IO
X_U45    S4 VSS VDD SW_S4 GND S4_IO
X_U46    D1 VSS VDD SW_D1 GND D1_IO
X_U47    D2 VSS VDD SW_D2 GND D2_IO
X_U48    D3 VSS VDD SW_D3 GND D3_IO
X_U49    D4 VSS VDD SW_D4 GND D4_IO
*Switch blocks (Ron, OISO)
X_U50    S1 D1 VSS VDD GND SW_S1D1 SWITCH_S1
X_U51    S2 D2 VSS VDD GND SW_S2D2 SWITCH_S2
X_U52    S3 D3 VSS VDD GND SW_S3D3 SWITCH_S3
X_U53    S4 D4 VSS VDD GND SW_S4D4 SWITCH_S4
*switch to switch capacitance (XTALK)
C1 S1 S4 5.032921211719517e-14
C2 S1 S3 5.032921211719517e-14
C3 S1 S2 5.032921211719517e-14
C4 S4 S3 5.032921211719517e-14
C5 S4 S2 5.032921211719517e-14
C6 S3 S2 5.032921211719517e-14
C7 D1 D4 5.032921211719517e-14
C8 D1 D3 5.032921211719517e-14
C9 D1 D2 5.032921211719517e-14
C10 D4 D3 5.032921211719517e-14
C11 D4 D2 5.032921211719517e-14
C12 D3 D2 5.032921211719517e-14
*Charge injection blocks (Qc)
X_U54    S1 VSS VDD D1 SW_S1D1 GND GND QC_S1
X_U55    S2 VSS VDD D2 SW_S2D2 GND GND QC_S2
X_U56    S3 VSS VDD D3 SW_S3D3 GND GND QC_S3
X_U57    S4 VSS VDD D4 SW_S4D4 GND GND QC_S4
.ENDS TMUX8213 
*$
*These circuits add a series diode that simulates an ESD diode from IN (-) to OUT (+)
*This diode will not cause a failure when IN > OUT but may show a large increase in current consumption 
*$
.SUBCKT ESD_Diode IN OUT
*
.MODEL DCLAMP D(IS=1E-15 IBV=1E-13 ISR = 1E-15)
D1 IN OUT DCLAMP
*
.ENDS
*$
*These circuits add a parallel current source/sink to simulate supply current consumption, based on the table
*
.SUBCKT I_VDD VDD GND
*
EI_VDD NVDD GND TABLE {V(VDD,GND)} = 
+ (0.0,0.0)
+ (4.4,0.0001)
+ (4.5,0.00011)
+ (72.0,0.0004)
+ (100.0,0.0004)
*
GVDD VDD GND VALUE = {(V(NVDD)+1p)}
*
.ENDS
.SUBCKT I_VSS VSS GND
*
EI_VSS NVSS GND TABLE {V(VSS,GND)} = 
+ (-50.0,-0.0004)
+ (-36.0,-0.0004)
+ (-5.0,-0.00011)
+ (0.0,0.0)
*
GVSS VSS GND VALUE = {(V(NVSS)+1p)}
*
.ENDS
*
*These circuits compare the current state and the input voltage to find the new state
*if the current state is on (1) then we will change states if VIN goes below VIL (1 to 0)
*if the current state is on (0) then we will change states if VIN goes above VIH (0 to 1)
.SUBCKT COMPARATOR_VDD  STATE VIN NEWSTATE GND
EVIH VIH GND TABLE {V(VIN,GND)} = 
+ (0,0)
+ (4.399,0)
+ (4.4,1)
EVIL VIL GND TABLE {V(VIN,GND)} = 
+ (0,0)
+ (4.199,0)
+ (4.2,1)
EOUT NEWSTATE GND VALUE = { IF (V(STATE, GND)>0.63, V(VIH,GND), V(VIL,GND) ) }
.ENDS
*$
.SUBCKT COMPARATOR_SEL1  STATE VIN NEWSTATE GND
EVIH VIH GND TABLE {V(VIN,GND)} = 
+ (0,0)
+ (1.249,0)
+ (1.25,1)
EVIL VIL GND TABLE {V(VIN,GND)} = 
+ (0,0)
+ (0.849,0)
+ (0.85,1)
EOUT NEWSTATE GND VALUE = { IF (V(STATE, GND)>0.63, V(VIH,GND), V(VIL,GND) ) }
.ENDS
*$
.SUBCKT COMPARATOR_SEL2  STATE VIN NEWSTATE GND
EVIH VIH GND TABLE {V(VIN,GND)} = 
+ (0,0)
+ (1.249,0)
+ (1.25,1)
EVIL VIL GND TABLE {V(VIN,GND)} = 
+ (0,0)
+ (0.849,0)
+ (0.85,1)
EOUT NEWSTATE GND VALUE = { IF (V(STATE, GND)>0.63, V(VIH,GND), V(VIL,GND) ) }
.ENDS
*$
.SUBCKT COMPARATOR_SEL3  STATE VIN NEWSTATE GND
EVIH VIH GND TABLE {V(VIN,GND)} = 
+ (0,0)
+ (1.249,0)
+ (1.25,1)
EVIL VIL GND TABLE {V(VIN,GND)} = 
+ (0,0)
+ (0.849,0)
+ (0.85,1)
EOUT NEWSTATE GND VALUE = { IF (V(STATE, GND)>0.63, V(VIH,GND), V(VIL,GND) ) }
.ENDS
*$
.SUBCKT COMPARATOR_SEL4  STATE VIN NEWSTATE GND
EVIH VIH GND TABLE {V(VIN,GND)} = 
+ (0,0)
+ (1.249,0)
+ (1.25,1)
EVIL VIL GND TABLE {V(VIN,GND)} = 
+ (0,0)
+ (0.849,0)
+ (0.85,1)
EOUT NEWSTATE GND VALUE = { IF (V(STATE, GND)>0.63, V(VIH,GND), V(VIL,GND) ) }
.ENDS
*$
*These circuits handle all the logic for the device
*this does NOT handle timing delays or VIH VIL, all signals here are 1/0 logic
*VDD SEL1 SEL2 SEL3 SEL4    SW_S1 SW_D1 SW_S1D1 SW_S2 SW_D2 SW_S2D2 SW_S3 SW_D3 SW_S3D3 SW_S4 SW_D4 SW_S4D4 
*1   0    0    0    0       1     1     1       0     0     0       0     0     0       1     1     1       
*1   0    0    0    1       1     1     1       0     0     0       0     0     0       0     0     0       
*1   0    0    1    0       1     1     1       0     0     0       1     1     1       1     1     1       
*1   0    0    1    1       1     1     1       0     0     0       1     1     1       0     0     0       
*1   0    1    0    0       1     1     1       1     1     1       0     0     0       1     1     1       
*1   0    1    0    1       1     1     1       1     1     1       0     0     0       0     0     0       
*1   0    1    1    0       1     1     1       1     1     1       1     1     1       1     1     1       
*1   0    1    1    1       1     1     1       1     1     1       1     1     1       0     0     0       
*1   1    0    0    0       0     0     0       0     0     0       0     0     0       1     1     1       
*1   1    0    0    1       0     0     0       0     0     0       0     0     0       0     0     0       
*1   1    0    1    0       0     0     0       0     0     0       1     1     1       1     1     1       
*1   1    0    1    1       0     0     0       0     0     0       1     1     1       0     0     0       
*1   1    1    0    0       0     0     0       1     1     1       0     0     0       1     1     1       
*1   1    1    0    1       0     0     0       1     1     1       0     0     0       0     0     0       
*1   1    1    1    0       0     0     0       1     1     1       1     1     1       1     1     1       
*1   1    1    1    1       0     0     0       1     1     1       1     1     1       0     0     0       
*$
.SUBCKT LOGIC  LVDD LSEL1 LSEL2 LSEL3 LSEL4 SW_S1 SW_D1 SW_S1D1 SW_S2 SW_D2 SW_S2D2 SW_S3 SW_D3 SW_S3D3 SW_S4 SW_D4 SW_S4D4 GND
*
*convert analog RC to 1/0 digital
ELVDD_DIG LVDD_DIG GND VALUE = {IF (V(LVDD,GND)>0.63,1, 0) }
ELSEL1_DIG LSEL1_DIG GND VALUE = {IF (V(LSEL1,GND)>0.63,1, 0) }
ELSEL2_DIG LSEL2_DIG GND VALUE = {IF (V(LSEL2,GND)>0.63,1, 0) }
ELSEL3_DIG LSEL3_DIG GND VALUE = {IF (V(LSEL3,GND)>0.63,1, 0) }
ELSEL4_DIG LSEL4_DIG GND VALUE = {IF (V(LSEL4,GND)>0.63,1, 0) }
*Create an inverse of all inputs in case they need to be used
ELVDD_DIGN LVDD_DIGN GND VALUE = { 1 - V(LVDD_DIG, GND)}
ELSEL1_DIGN LSEL1_DIGN GND VALUE = { 1 - V(LSEL1_DIG, GND)}
ELSEL2_DIGN LSEL2_DIGN GND VALUE = { 1 - V(LSEL2_DIG, GND)}
ELSEL3_DIGN LSEL3_DIGN GND VALUE = { 1 - V(LSEL3_DIG, GND)}
ELSEL4_DIGN LSEL4_DIGN GND VALUE = { 1 - V(LSEL4_DIG, GND)}
*
*Determine output states and rectify outputs
ELSW_S1 LSW_S1 GND VALUE = { V(LVDD_DIG,GND) * V(LSEL1_DIGN,GND) * V(LSEL2_DIGN,GND) * V(LSEL3_DIGN,GND) * V(LSEL4_DIGN,GND)
+ + V(LVDD_DIG,GND) * V(LSEL1_DIGN,GND) * V(LSEL2_DIGN,GND) * V(LSEL3_DIGN,GND) * V(LSEL4_DIG,GND
+ ) + V(LVDD_DIG,GND) * V(LSEL1_DIGN,GND) * V(LSEL2_DIGN,GND) * V(LSEL3_DIG,GND) * V(LSEL4_DIGN,GND)
+ + V(LVDD_DIG,GND) * V(LSEL1_DIGN,GND) * V(LSEL2_DIGN,GND) * V(LSEL3_DIG,GND) * V(LSEL4_DIG,GND)
+ + V(LVDD_DIG,GND) * V(LSEL1_DIGN,GND) * V(LSEL2_DIG,GND) * V(LSEL3_DIGN,GND) * V(LSEL4_DIGN,GND)
+ + V(LVDD_DIG,GND) * V(LSEL1_DIGN,GND) * V(LSEL2_DIG,GND) * V(LSEL3_DIGN,GND) * V(LSEL4_DIG,GND)
+ + V(LVDD_DIG,GND) * V(LSEL1_DIGN,GND) * V(LSEL2_DIG,GND) * V(LSEL3_DIG,GND) * V(LSEL4_DIGN,GND)
+ + V(LVDD_DIG,GND) * V(LSEL1_DIGN,GND) * V(LSEL2_DIG,GND) * V(LSEL3_DIG,GND) * V(LSEL4_DIG,GND) }
ESW_S1 SW_S1 GND VALUE = { IF (V(LSW_S1, GND)>0.5,1,0) }
ELSW_D1 LSW_D1 GND VALUE = { V(LVDD_DIG,GND) * V(LSEL1_DIGN,GND) * V(LSEL2_DIGN,GND) * V(LSEL3_DIGN,GND) * V(LSEL4_DIGN,GND)
+ + V(LVDD_DIG,GND) * V(LSEL1_DIGN,GND) * V(LSEL2_DIGN,GND) * V(LSEL3_DIGN,GND) * V(LSEL4_DIG,GND
+ ) + V(LVDD_DIG,GND) * V(LSEL1_DIGN,GND) * V(LSEL2_DIGN,GND) * V(LSEL3_DIG,GND) * V(LSEL4_DIGN,GND)
+ + V(LVDD_DIG,GND) * V(LSEL1_DIGN,GND) * V(LSEL2_DIGN,GND) * V(LSEL3_DIG,GND) * V(LSEL4_DIG,GND)
+ + V(LVDD_DIG,GND) * V(LSEL1_DIGN,GND) * V(LSEL2_DIG,GND) * V(LSEL3_DIGN,GND) * V(LSEL4_DIGN,GND)
+ + V(LVDD_DIG,GND) * V(LSEL1_DIGN,GND) * V(LSEL2_DIG,GND) * V(LSEL3_DIGN,GND) * V(LSEL4_DIG,GND)
+ + V(LVDD_DIG,GND) * V(LSEL1_DIGN,GND) * V(LSEL2_DIG,GND) * V(LSEL3_DIG,GND) * V(LSEL4_DIGN,GND)
+ + V(LVDD_DIG,GND) * V(LSEL1_DIGN,GND) * V(LSEL2_DIG,GND) * V(LSEL3_DIG,GND) * V(LSEL4_DIG,GND) }
ESW_D1 SW_D1 GND VALUE = { IF (V(LSW_D1, GND)>0.5,1,0) }
ELSW_S1D1 LSW_S1D1 GND VALUE = { V(LVDD_DIG,GND) * V(LSEL1_DIGN,GND) * V(LSEL2_DIGN,GND) * V(LSEL3_DIGN,GND) * V(LSEL4_DIGN,GND)
+ + V(LVDD_DIG,GND) * V(LSEL1_DIGN,GND) * V(LSEL2_DIGN,GND) * V(LSEL3_DIGN,GND) * V(LSEL4_DIG
+ ,GND) + V(LVDD_DIG,GND) * V(LSEL1_DIGN,GND) * V(LSEL2_DIGN,GND) * V(LSEL3_DIG,GND) * V(LSEL4_DIGN,GND)
+ + V(LVDD_DIG,GND) * V(LSEL1_DIGN,GND) * V(LSEL2_DIGN,GND) * V(LSEL3_DIG,GND) * V(LSEL4_DIG,GND)
+ + V(LVDD_DIG,GND) * V(LSEL1_DIGN,GND) * V(LSEL2_DIG,GND) * V(LSEL3_DIGN,GND) * V(LSEL4_DIGN,GND)
+ + V(LVDD_DIG,GND) * V(LSEL1_DIGN,GND) * V(LSEL2_DIG,GND) * V(LSEL3_DIGN,GND) * V(LSEL4_DIG,GND)
+ + V(LVDD_DIG,GND) * V(LSEL1_DIGN,GND) * V(LSEL2_DIG,GND) * V(LSEL3_DIG,GND) * V(LSEL4_DIGN,GND)
+ + V(LVDD_DIG,GND) * V(LSEL1_DIGN,GND) * V(LSEL2_DIG,GND) * V(LSEL3_DIG,GND) * V(LSEL4_DIG,GND) }
ESW_S1D1 SW_S1D1 GND VALUE = { IF (V(LSW_S1D1, GND)>0.5,1,0) }
ELSW_S2 LSW_S2 GND VALUE = { V(LVDD_DIG,GND) * V(LSEL1_DIGN,GND) * V(LSEL2_DIG,GND) * V(LSEL3_DIGN,GND) * V(LSEL4_DIGN,GND)
+ + V(LVDD_DIG,GND) * V(LSEL1_DIGN,GND) * V(LSEL2_DIG,GND) * V(LSEL3_DIGN,GND) * V(LSEL4_DIG,GND) 
+ + V(LVDD_DIG,GND) * V(LSEL1_DIGN,GND) * V(LSEL2_DIG,GND) * V(LSEL3_DIG,GND) * V(LSEL4_DIGN,GND)
+ + V(LVDD_DIG,GND) * V(LSEL1_DIGN,GND) * V(LSEL2_DIG,GND) * V(LSEL3_DIG,GND) * V(LSEL4_DIG,GND)
+ + V(LVDD_DIG,GND) * V(LSEL1_DIG,GND) * V(LSEL2_DIG,GND) * V(LSEL3_DIGN,GND) * V(LSEL4_DIGN,GND)
+ + V(LVDD_DIG,GND) * V(LSEL1_DIG,GND) * V(LSEL2_DIG,GND) * V(LSEL3_DIGN,GND) * V(LSEL4_DIG,GND)
+ + V(LVDD_DIG,GND) * V(LSEL1_DIG,GND) * V(LSEL2_DIG,GND) * V(LSEL3_DIG,GND) * V(LSEL4_DIGN,GND)
+ + V(LVDD_DIG,GND) * V(LSEL1_DIG,GND) * V(LSEL2_DIG,GND) * V(LSEL3_DIG,GND) * V(LSEL4_DIG,GND) }
ESW_S2 SW_S2 GND VALUE = { IF (V(LSW_S2, GND)>0.5,1,0) }
ELSW_D2 LSW_D2 GND VALUE = { V(LVDD_DIG,GND) * V(LSEL1_DIGN,GND) * V(LSEL2_DIG,GND) * V(LSEL3_DIGN,GND) * V(LSEL4_DIGN,GND)
+ + V(LVDD_DIG,GND) * V(LSEL1_DIGN,GND) * V(LSEL2_DIG,GND) * V(LSEL3_DIGN,GND) * V(LSEL4_DIG,GND) 
+ + V(LVDD_DIG,GND) * V(LSEL1_DIGN,GND) * V(LSEL2_DIG,GND) * V(LSEL3_DIG,GND) * V(LSEL4_DIGN,GND)
+ + V(LVDD_DIG,GND) * V(LSEL1_DIGN,GND) * V(LSEL2_DIG,GND) * V(LSEL3_DIG,GND) * V(LSEL4_DIG,GND)
+ + V(LVDD_DIG,GND) * V(LSEL1_DIG,GND) * V(LSEL2_DIG,GND) * V(LSEL3_DIGN,GND) * V(LSEL4_DIGN,GND)
+ + V(LVDD_DIG,GND) * V(LSEL1_DIG,GND) * V(LSEL2_DIG,GND) * V(LSEL3_DIGN,GND) * V(LSEL4_DIG,GND)
+ + V(LVDD_DIG,GND) * V(LSEL1_DIG,GND) * V(LSEL2_DIG,GND) * V(LSEL3_DIG,GND) * V(LSEL4_DIGN,GND)
+ + V(LVDD_DIG,GND) * V(LSEL1_DIG,GND) * V(LSEL2_DIG,GND) * V(LSEL3_DIG,GND) * V(LSEL4_DIG,GND) }
ESW_D2 SW_D2 GND VALUE = { IF (V(LSW_D2, GND)>0.5,1,0) }
ELSW_S2D2 LSW_S2D2 GND VALUE = { V(LVDD_DIG,GND) * V(LSEL1_DIGN,GND) * V(LSEL2_DIG,GND) * V(LSEL3_DIGN,GND) * V(LSEL4_DIGN,GND)
+ + V(LVDD_DIG,GND) * V(LSEL1_DIGN,GND) * V(LSEL2_DIG,GND) * V(LSEL3_DIGN,GND) * V(LSEL4_DIG,G
+ ND) + V(LVDD_DIG,GND) * V(LSEL1_DIGN,GND) * V(LSEL2_DIG,GND) * V(LSEL3_DIG,GND) * V(LSEL4_DIGN,GND)
+ + V(LVDD_DIG,GND) * V(LSEL1_DIGN,GND) * V(LSEL2_DIG,GND) * V(LSEL3_DIG,GND) * V(LSEL4_DIG,GND)
+ + V(LVDD_DIG,GND) * V(LSEL1_DIG,GND) * V(LSEL2_DIG,GND) * V(LSEL3_DIGN,GND) * V(LSEL4_DIGN,GND)
+ + V(LVDD_DIG,GND) * V(LSEL1_DIG,GND) * V(LSEL2_DIG,GND) * V(LSEL3_DIGN,GND) * V(LSEL4_DIG,GND)
+ + V(LVDD_DIG,GND) * V(LSEL1_DIG,GND) * V(LSEL2_DIG,GND) * V(LSEL3_DIG,GND) * V(LSEL4_DIGN,GND)
+ + V(LVDD_DIG,GND) * V(LSEL1_DIG,GND) * V(LSEL2_DIG,GND) * V(LSEL3_DIG,GND) * V(LSEL4_DIG,GND) }
ESW_S2D2 SW_S2D2 GND VALUE = { IF (V(LSW_S2D2, GND)>0.5,1,0) }
ELSW_S3 LSW_S3 GND VALUE = { V(LVDD_DIG,GND) * V(LSEL1_DIGN,GND) * V(LSEL2_DIGN,GND) * V(LSEL3_DIG,GND) * V(LSEL4_DIGN,GND)
+ + V(LVDD_DIG,GND) * V(LSEL1_DIGN,GND) * V(LSEL2_DIGN,GND) * V(LSEL3_DIG,GND) * V(LSEL4_DIG,GND) 
+ + V(LVDD_DIG,GND) * V(LSEL1_DIGN,GND) * V(LSEL2_DIG,GND) * V(LSEL3_DIG,GND) * V(LSEL4_DIGN,GND)
+ + V(LVDD_DIG,GND) * V(LSEL1_DIGN,GND) * V(LSEL2_DIG,GND) * V(LSEL3_DIG,GND) * V(LSEL4_DIG,GND)
+ + V(LVDD_DIG,GND) * V(LSEL1_DIG,GND) * V(LSEL2_DIGN,GND) * V(LSEL3_DIG,GND) * V(LSEL4_DIGN,GND)
+ + V(LVDD_DIG,GND) * V(LSEL1_DIG,GND) * V(LSEL2_DIGN,GND) * V(LSEL3_DIG,GND) * V(LSEL4_DIG,GND)
+ + V(LVDD_DIG,GND) * V(LSEL1_DIG,GND) * V(LSEL2_DIG,GND) * V(LSEL3_DIG,GND) * V(LSEL4_DIGN,GND)
+ + V(LVDD_DIG,GND) * V(LSEL1_DIG,GND) * V(LSEL2_DIG,GND) * V(LSEL3_DIG,GND) * V(LSEL4_DIG,GND) }
ESW_S3 SW_S3 GND VALUE = { IF (V(LSW_S3, GND)>0.5,1,0) }
ELSW_D3 LSW_D3 GND VALUE = { V(LVDD_DIG,GND) * V(LSEL1_DIGN,GND) * V(LSEL2_DIGN,GND) * V(LSEL3_DIG,GND) * V(LSEL4_DIGN,GND)
+ + V(LVDD_DIG,GND) * V(LSEL1_DIGN,GND) * V(LSEL2_DIGN,GND) * V(LSEL3_DIG,GND) * V(LSEL4_DIG,GND) 
+ + V(LVDD_DIG,GND) * V(LSEL1_DIGN,GND) * V(LSEL2_DIG,GND) * V(LSEL3_DIG,GND) * V(LSEL4_DIGN,GND)
+ + V(LVDD_DIG,GND) * V(LSEL1_DIGN,GND) * V(LSEL2_DIG,GND) * V(LSEL3_DIG,GND) * V(LSEL4_DIG,GND)
+ + V(LVDD_DIG,GND) * V(LSEL1_DIG,GND) * V(LSEL2_DIGN,GND) * V(LSEL3_DIG,GND) * V(LSEL4_DIGN,GND)
+ + V(LVDD_DIG,GND) * V(LSEL1_DIG,GND) * V(LSEL2_DIGN,GND) * V(LSEL3_DIG,GND) * V(LSEL4_DIG,GND)
+ + V(LVDD_DIG,GND) * V(LSEL1_DIG,GND) * V(LSEL2_DIG,GND) * V(LSEL3_DIG,GND) * V(LSEL4_DIGN,GND)
+ + V(LVDD_DIG,GND) * V(LSEL1_DIG,GND) * V(LSEL2_DIG,GND) * V(LSEL3_DIG,GND) * V(LSEL4_DIG,GND) }
ESW_D3 SW_D3 GND VALUE = { IF (V(LSW_D3, GND)>0.5,1,0) }
ELSW_S3D3 LSW_S3D3 GND VALUE = { V(LVDD_DIG,GND) * V(LSEL1_DIGN,GND) * V(LSEL2_DIGN,GND) * V(LSEL3_DIG,GND) * V(LSEL4_DIGN,GND)
+ + V(LVDD_DIG,GND) * V(LSEL1_DIGN,GND) * V(LSEL2_DIGN,GND) * V(LSEL3_DIG,GND) * V(LSEL4_DIG,G
+ ND) + V(LVDD_DIG,GND) * V(LSEL1_DIGN,GND) * V(LSEL2_DIG,GND) * V(LSEL3_DIG,GND) * V(LSEL4_DIGN,GND)
+ + V(LVDD_DIG,GND) * V(LSEL1_DIGN,GND) * V(LSEL2_DIG,GND) * V(LSEL3_DIG,GND) * V(LSEL4_DIG,GND)
+ + V(LVDD_DIG,GND) * V(LSEL1_DIG,GND) * V(LSEL2_DIGN,GND) * V(LSEL3_DIG,GND) * V(LSEL4_DIGN,GND)
+ + V(LVDD_DIG,GND) * V(LSEL1_DIG,GND) * V(LSEL2_DIGN,GND) * V(LSEL3_DIG,GND) * V(LSEL4_DIG,GND)
+ + V(LVDD_DIG,GND) * V(LSEL1_DIG,GND) * V(LSEL2_DIG,GND) * V(LSEL3_DIG,GND) * V(LSEL4_DIGN,GND)
+ + V(LVDD_DIG,GND) * V(LSEL1_DIG,GND) * V(LSEL2_DIG,GND) * V(LSEL3_DIG,GND) * V(LSEL4_DIG,GND) }
ESW_S3D3 SW_S3D3 GND VALUE = { IF (V(LSW_S3D3, GND)>0.5,1,0) }
ELSW_S4 LSW_S4 GND VALUE = { V(LVDD_DIG,GND) * V(LSEL1_DIGN,GND) * V(LSEL2_DIGN,GND) * V(LSEL3_DIGN,GND) * V(LSEL4_DIGN,GND)
+ + V(LVDD_DIG,GND) * V(LSEL1_DIGN,GND) * V(LSEL2_DIGN,GND) * V(LSEL3_DIG,GND) * V(LSEL4_DIGN,GND
+ ) + V(LVDD_DIG,GND) * V(LSEL1_DIGN,GND) * V(LSEL2_DIG,GND) * V(LSEL3_DIGN,GND) * V(LSEL4_DIGN,GND)
+ + V(LVDD_DIG,GND) * V(LSEL1_DIGN,GND) * V(LSEL2_DIG,GND) * V(LSEL3_DIG,GND) * V(LSEL4_DIGN,GND)
+ + V(LVDD_DIG,GND) * V(LSEL1_DIG,GND) * V(LSEL2_DIGN,GND) * V(LSEL3_DIGN,GND) * V(LSEL4_DIGN,GND)
+ + V(LVDD_DIG,GND) * V(LSEL1_DIG,GND) * V(LSEL2_DIGN,GND) * V(LSEL3_DIG,GND) * V(LSEL4_DIGN,GND)
+ + V(LVDD_DIG,GND) * V(LSEL1_DIG,GND) * V(LSEL2_DIG,GND) * V(LSEL3_DIGN,GND) * V(LSEL4_DIGN,GND)
+ + V(LVDD_DIG,GND) * V(LSEL1_DIG,GND) * V(LSEL2_DIG,GND) * V(LSEL3_DIG,GND) * V(LSEL4_DIGN,GND) }
ESW_S4 SW_S4 GND VALUE = { IF (V(LSW_S4, GND)>0.5,1,0) }
ELSW_D4 LSW_D4 GND VALUE = { V(LVDD_DIG,GND) * V(LSEL1_DIGN,GND) * V(LSEL2_DIGN,GND) * V(LSEL3_DIGN,GND) * V(LSEL4_DIGN,GND)
+ + V(LVDD_DIG,GND) * V(LSEL1_DIGN,GND) * V(LSEL2_DIGN,GND) * V(LSEL3_DIG,GND) * V(LSEL4_DIGN,GND
+ ) + V(LVDD_DIG,GND) * V(LSEL1_DIGN,GND) * V(LSEL2_DIG,GND) * V(LSEL3_DIGN,GND) * V(LSEL4_DIGN,GND)
+ + V(LVDD_DIG,GND) * V(LSEL1_DIGN,GND) * V(LSEL2_DIG,GND) * V(LSEL3_DIG,GND) * V(LSEL4_DIGN,GND)
+ + V(LVDD_DIG,GND) * V(LSEL1_DIG,GND) * V(LSEL2_DIGN,GND) * V(LSEL3_DIGN,GND) * V(LSEL4_DIGN,GND)
+ + V(LVDD_DIG,GND) * V(LSEL1_DIG,GND) * V(LSEL2_DIGN,GND) * V(LSEL3_DIG,GND) * V(LSEL4_DIGN,GND)
+ + V(LVDD_DIG,GND) * V(LSEL1_DIG,GND) * V(LSEL2_DIG,GND) * V(LSEL3_DIGN,GND) * V(LSEL4_DIGN,GND)
+ + V(LVDD_DIG,GND) * V(LSEL1_DIG,GND) * V(LSEL2_DIG,GND) * V(LSEL3_DIG,GND) * V(LSEL4_DIGN,GND) }
ESW_D4 SW_D4 GND VALUE = { IF (V(LSW_D4, GND)>0.5,1,0) }
ELSW_S4D4 LSW_S4D4 GND VALUE = { V(LVDD_DIG,GND) * V(LSEL1_DIGN,GND) * V(LSEL2_DIGN,GND) * V(LSEL3_DIGN,GND) * V(LSEL4_DIGN,GND)
+ + V(LVDD_DIG,GND) * V(LSEL1_DIGN,GND) * V(LSEL2_DIGN,GND) * V(LSEL3_DIG,GND) * V(LSEL4_DIGN
+ ,GND) + V(LVDD_DIG,GND) * V(LSEL1_DIGN,GND) * V(LSEL2_DIG,GND) * V(LSEL3_DIGN,GND) * V(LSEL4_DIGN,GND)
+ + V(LVDD_DIG,GND) * V(LSEL1_DIGN,GND) * V(LSEL2_DIG,GND) * V(LSEL3_DIG,GND) * V(LSEL4_DIGN,GND)
+ + V(LVDD_DIG,GND) * V(LSEL1_DIG,GND) * V(LSEL2_DIGN,GND) * V(LSEL3_DIGN,GND) * V(LSEL4_DIGN,GND)
+ + V(LVDD_DIG,GND) * V(LSEL1_DIG,GND) * V(LSEL2_DIGN,GND) * V(LSEL3_DIG,GND) * V(LSEL4_DIGN,GND)
+ + V(LVDD_DIG,GND) * V(LSEL1_DIG,GND) * V(LSEL2_DIG,GND) * V(LSEL3_DIGN,GND) * V(LSEL4_DIGN,GND)
+ + V(LVDD_DIG,GND) * V(LSEL1_DIG,GND) * V(LSEL2_DIG,GND) * V(LSEL3_DIG,GND) * V(LSEL4_DIGN,GND) }
ESW_S4D4 SW_S4D4 GND VALUE = { IF (V(LSW_S4D4, GND)>0.5,1,0) }
*
.ENDS
*$
*These circuits add a RC delay in series to the In and OUT signal
*split delays depending on if IN is going high to low or low to high
*if IN is going high to low, the R needs to be adjusted by /0.46471 to convert the 0.37% time to 0.63%
*TON_TOFF_SUPPLY
.SUBCKT Delay_VDD  IN VDD GND OUT
*
C1 OUT_ONDLY GND 1e-09
ERON NRON GND TABLE {V(VDD,GND)} =
+ (5,1000.0)
+ (100,1000.0)
R1 OUT_ONDLY IN 10e9
GRON OUT_ONDLY IN VALUE = {V(OUT_ONDLY,IN)/V(NRON)}
*
EOUT_ONREC OUT_ONREC GND VALUE = { V(OUT_ONDLY, GND)}
*
S_ON OUT_ONREC OUT IN GND  SWON
.MODEL SWON VSWITCH Roff=1e9 Ron=0.001 Voff=0.37V Von=0.63V
*
C2 OUT_OFFDLY GND 1e-09
EROFF NROFF GND TABLE {V(VDD,GND)} =
+ (5,1075.948)
+ (100,1075.948)
R2 OUT_OFFDLY IN 10e9
GROFF OUT_OFFDLY IN VALUE = {V(OUT_OFFDLY,IN)/V(NROFF)}
*
EOUT_OFFREC OUT_OFFREC GND VALUE = { V(OUT_OFFDLY, GND)}
*
S_OFF OUT_OFFREC OUT IN GND  SWOFF
.MODEL SWOFF VSWITCH Roff=1e9 Ron=0.001 Voff=0.63V Von=0.37V
*
.ENDS
*
*TON_TOFF_EN
.SUBCKT Delay_SEL1  IN VDD GND OUT
*
C1 OUT_ONDLY GND 1e-09
ERON NRON GND TABLE {V(VDD,GND)} =
+ (72,5000.0)
+ (100,5000.0)
+ (36,5000.0)
+ (50,5000.0)
R1 OUT_ONDLY IN 10e9
GRON OUT_ONDLY IN VALUE = {V(OUT_ONDLY,IN)/V(NRON)}
*
EOUT_ONREC OUT_ONREC GND VALUE = { V(OUT_ONDLY, GND)}
*
S_ON OUT_ONREC OUT IN GND  SWON
.MODEL SWON VSWITCH Roff=1e9 Ron=0.001 Voff=0.37V Von=0.63V
*
C2 OUT_OFFDLY GND 1e-09
EROFF NROFF GND TABLE {V(VDD,GND)} =
+ (72,430.3792)
+ (100,430.3792)
+ (36,430.3792)
+ (50,430.3792)
R2 OUT_OFFDLY IN 10e9
GROFF OUT_OFFDLY IN VALUE = {V(OUT_OFFDLY,IN)/V(NROFF)}
*
EOUT_OFFREC OUT_OFFREC GND VALUE = { V(OUT_OFFDLY, GND)}
*
S_OFF OUT_OFFREC OUT IN GND  SWOFF
.MODEL SWOFF VSWITCH Roff=1e9 Ron=0.001 Voff=0.63V Von=0.37V
*
.ENDS
*
*TON_TOFF_EN
.SUBCKT Delay_SEL2  IN VDD GND OUT
*
C1 OUT_ONDLY GND 1e-09
ERON NRON GND TABLE {V(VDD,GND)} =
+ (72,5000.0)
+ (100,5000.0)
+ (36,5000.0)
+ (50,5000.0)
R1 OUT_ONDLY IN 10e9
GRON OUT_ONDLY IN VALUE = {V(OUT_ONDLY,IN)/V(NRON)}
*
EOUT_ONREC OUT_ONREC GND VALUE = { V(OUT_ONDLY, GND)}
*
S_ON OUT_ONREC OUT IN GND  SWON
.MODEL SWON VSWITCH Roff=1e9 Ron=0.001 Voff=0.37V Von=0.63V
*
C2 OUT_OFFDLY GND 1e-09
EROFF NROFF GND TABLE {V(VDD,GND)} =
+ (72,430.3792)
+ (100,430.3792)
+ (36,430.3792)
+ (50,430.3792)
R2 OUT_OFFDLY IN 10e9
GROFF OUT_OFFDLY IN VALUE = {V(OUT_OFFDLY,IN)/V(NROFF)}
*
EOUT_OFFREC OUT_OFFREC GND VALUE = { V(OUT_OFFDLY, GND)}
*
S_OFF OUT_OFFREC OUT IN GND  SWOFF
.MODEL SWOFF VSWITCH Roff=1e9 Ron=0.001 Voff=0.63V Von=0.37V
*
.ENDS
*
*TON_TOFF_EN
.SUBCKT Delay_SEL3  IN VDD GND OUT
*
C1 OUT_ONDLY GND 1e-09
ERON NRON GND TABLE {V(VDD,GND)} =
+ (72,5000.0)
+ (100,5000.0)
+ (36,5000.0)
+ (50,5000.0)
R1 OUT_ONDLY IN 10e9
GRON OUT_ONDLY IN VALUE = {V(OUT_ONDLY,IN)/V(NRON)}
*
EOUT_ONREC OUT_ONREC GND VALUE = { V(OUT_ONDLY, GND)}
*
S_ON OUT_ONREC OUT IN GND  SWON
.MODEL SWON VSWITCH Roff=1e9 Ron=0.001 Voff=0.37V Von=0.63V
*
C2 OUT_OFFDLY GND 1e-09
EROFF NROFF GND TABLE {V(VDD,GND)} =
+ (72,430.3792)
+ (100,430.3792)
+ (36,430.3792)
+ (50,430.3792)
R2 OUT_OFFDLY IN 10e9
GROFF OUT_OFFDLY IN VALUE = {V(OUT_OFFDLY,IN)/V(NROFF)}
*
EOUT_OFFREC OUT_OFFREC GND VALUE = { V(OUT_OFFDLY, GND)}
*
S_OFF OUT_OFFREC OUT IN GND  SWOFF
.MODEL SWOFF VSWITCH Roff=1e9 Ron=0.001 Voff=0.63V Von=0.37V
*
.ENDS
*
*TON_TOFF_EN
.SUBCKT Delay_SEL4  IN VDD GND OUT
*
C1 OUT_ONDLY GND 1e-09
ERON NRON GND TABLE {V(VDD,GND)} =
+ (72,5000.0)
+ (100,5000.0)
+ (36,5000.0)
+ (50,5000.0)
R1 OUT_ONDLY IN 10e9
GRON OUT_ONDLY IN VALUE = {V(OUT_ONDLY,IN)/V(NRON)}
*
EOUT_ONREC OUT_ONREC GND VALUE = { V(OUT_ONDLY, GND)}
*
S_ON OUT_ONREC OUT IN GND  SWON
.MODEL SWON VSWITCH Roff=1e9 Ron=0.001 Voff=0.37V Von=0.63V
*
C2 OUT_OFFDLY GND 1e-09
EROFF NROFF GND TABLE {V(VDD,GND)} =
+ (72,430.3792)
+ (100,430.3792)
+ (36,430.3792)
+ (50,430.3792)
R2 OUT_OFFDLY IN 10e9
GROFF OUT_OFFDLY IN VALUE = {V(OUT_OFFDLY,IN)/V(NROFF)}
*
EOUT_OFFREC OUT_OFFREC GND VALUE = { V(OUT_OFFDLY, GND)}
*
S_OFF OUT_OFFREC OUT IN GND  SWOFF
.MODEL SWOFF VSWITCH Roff=1e9 Ron=0.001 Voff=0.63V Von=0.37V
*
.ENDS
*
*TTRAN
.SUBCKT Delay_SEL1  IN VDD GND OUT
*
C1 OUT_ONDLY GND 1e-09
ERON NRON GND TABLE {V(VDD,GND)} =
+ (72,10.0)
+ (100,10.0)
+ (36,10.0)
+ (50,10.0)
R1 OUT_ONDLY IN 10e9
GRON OUT_ONDLY IN VALUE = {V(OUT_ONDLY,IN)/V(NRON)}
*
EOUT_ONREC OUT_ONREC GND VALUE = { V(OUT_ONDLY, GND)}
*
S_ON OUT_ONREC OUT IN GND  SWON
.MODEL SWON VSWITCH Roff=1e9 Ron=0.001 Voff=0.37V Von=0.63V
*
C2 OUT_OFFDLY GND 1e-09
EROFF NROFF GND TABLE {V(VDD,GND)} =
+ (72,21.519)
+ (100,21.519)
+ (36,21.519)
+ (50,21.519)
R2 OUT_OFFDLY IN 10e9
GROFF OUT_OFFDLY IN VALUE = {V(OUT_OFFDLY,IN)/V(NROFF)}
*
EOUT_OFFREC OUT_OFFREC GND VALUE = { V(OUT_OFFDLY, GND)}
*
S_OFF OUT_OFFREC OUT IN GND  SWOFF
.MODEL SWOFF VSWITCH Roff=1e9 Ron=0.001 Voff=0.63V Von=0.37V
*
.ENDS
*
*TTRAN
.SUBCKT Delay_SEL2  IN VDD GND OUT
*
C1 OUT_ONDLY GND 1e-09
ERON NRON GND TABLE {V(VDD,GND)} =
+ (72,10.0)
+ (100,10.0)
+ (36,10.0)
+ (50,10.0)
R1 OUT_ONDLY IN 10e9
GRON OUT_ONDLY IN VALUE = {V(OUT_ONDLY,IN)/V(NRON)}
*
EOUT_ONREC OUT_ONREC GND VALUE = { V(OUT_ONDLY, GND)}
*
S_ON OUT_ONREC OUT IN GND  SWON
.MODEL SWON VSWITCH Roff=1e9 Ron=0.001 Voff=0.37V Von=0.63V
*
C2 OUT_OFFDLY GND 1e-09
EROFF NROFF GND TABLE {V(VDD,GND)} =
+ (72,21.519)
+ (100,21.519)
+ (36,21.519)
+ (50,21.519)
R2 OUT_OFFDLY IN 10e9
GROFF OUT_OFFDLY IN VALUE = {V(OUT_OFFDLY,IN)/V(NROFF)}
*
EOUT_OFFREC OUT_OFFREC GND VALUE = { V(OUT_OFFDLY, GND)}
*
S_OFF OUT_OFFREC OUT IN GND  SWOFF
.MODEL SWOFF VSWITCH Roff=1e9 Ron=0.001 Voff=0.63V Von=0.37V
*
.ENDS
*
*TTRAN
.SUBCKT Delay_SEL3  IN VDD GND OUT
*
C1 OUT_ONDLY GND 1e-09
ERON NRON GND TABLE {V(VDD,GND)} =
+ (72,10.0)
+ (100,10.0)
+ (36,10.0)
+ (50,10.0)
R1 OUT_ONDLY IN 10e9
GRON OUT_ONDLY IN VALUE = {V(OUT_ONDLY,IN)/V(NRON)}
*
EOUT_ONREC OUT_ONREC GND VALUE = { V(OUT_ONDLY, GND)}
*
S_ON OUT_ONREC OUT IN GND  SWON
.MODEL SWON VSWITCH Roff=1e9 Ron=0.001 Voff=0.37V Von=0.63V
*
C2 OUT_OFFDLY GND 1e-09
EROFF NROFF GND TABLE {V(VDD,GND)} =
+ (72,21.519)
+ (100,21.519)
+ (36,21.519)
+ (50,21.519)
R2 OUT_OFFDLY IN 10e9
GROFF OUT_OFFDLY IN VALUE = {V(OUT_OFFDLY,IN)/V(NROFF)}
*
EOUT_OFFREC OUT_OFFREC GND VALUE = { V(OUT_OFFDLY, GND)}
*
S_OFF OUT_OFFREC OUT IN GND  SWOFF
.MODEL SWOFF VSWITCH Roff=1e9 Ron=0.001 Voff=0.63V Von=0.37V
*
.ENDS
*
*TTRAN
.SUBCKT Delay_SEL4  IN VDD GND OUT
*
C1 OUT_ONDLY GND 1e-09
ERON NRON GND TABLE {V(VDD,GND)} =
+ (72,10.0)
+ (100,10.0)
+ (36,10.0)
+ (50,10.0)
R1 OUT_ONDLY IN 10e9
GRON OUT_ONDLY IN VALUE = {V(OUT_ONDLY,IN)/V(NRON)}
*
EOUT_ONREC OUT_ONREC GND VALUE = { V(OUT_ONDLY, GND)}
*
S_ON OUT_ONREC OUT IN GND  SWON
.MODEL SWON VSWITCH Roff=1e9 Ron=0.001 Voff=0.37V Von=0.63V
*
C2 OUT_OFFDLY GND 1e-09
EROFF NROFF GND TABLE {V(VDD,GND)} =
+ (72,21.519)
+ (100,21.519)
+ (36,21.519)
+ (50,21.519)
R2 OUT_OFFDLY IN 10e9
GROFF OUT_OFFDLY IN VALUE = {V(OUT_OFFDLY,IN)/V(NROFF)}
*
EOUT_OFFREC OUT_OFFREC GND VALUE = { V(OUT_OFFDLY, GND)}
*
S_OFF OUT_OFFREC OUT IN GND  SWOFF
.MODEL SWOFF VSWITCH Roff=1e9 Ron=0.001 Voff=0.63V Von=0.37V
*
.ENDS
*
*TBBM
.SUBCKT Delay_SW_S1  IN VDD GND OUT
*
C1 OUT_ONDLY GND 1e-09
ERON NRON GND TABLE {V(VDD,GND)} =
+ (72,1350.0)
+ (100,1350.0)
+ (36,1350.0)
+ (50,1350.0)
R1 OUT_ONDLY IN 10e9
GRON OUT_ONDLY IN VALUE = {V(OUT_ONDLY,IN)/V(NRON)}
*
EOUT_ONREC OUT_ONREC GND VALUE = { V(OUT_ONDLY, GND)}
*
S_ON OUT_ONREC OUT IN GND  SWON
.MODEL SWON VSWITCH Roff=1e9 Ron=0.001 Voff=0.37V Von=0.63V
*
C2 OUT_OFFDLY GND 1e-09
EROFF NROFF GND TABLE {V(VDD,GND)} =
+ (72,1183.5428)
+ (100,1183.5428)
+ (36,1183.5428)
+ (50,1183.5428)
R2 OUT_OFFDLY IN 10e9
GROFF OUT_OFFDLY IN VALUE = {V(OUT_OFFDLY,IN)/V(NROFF)}
*
EOUT_OFFREC OUT_OFFREC GND VALUE = { V(OUT_OFFDLY, GND)}
*
S_OFF OUT_OFFREC OUT IN GND  SWOFF
.MODEL SWOFF VSWITCH Roff=1e9 Ron=0.001 Voff=0.63V Von=0.37V
*
.ENDS
*
*BUFFER
.SUBCKT Delay_SW_D1  IN VDD GND OUT
*
C1 OUT_ONDLY GND 1e-09
ERON NRON GND TABLE {V(VDD,GND)} =
+ (72,100.0)
+ (100,100.0)
+ (36,100.0)
+ (50,100.0)
R1 OUT_ONDLY IN 10e9
GRON OUT_ONDLY IN VALUE = {V(OUT_ONDLY,IN)/V(NRON)}
*
EOUT_ONREC OUT_ONREC GND VALUE = { V(OUT_ONDLY, GND)}
*
S_ON OUT_ONREC OUT IN GND  SWON
.MODEL SWON VSWITCH Roff=1e9 Ron=0.001 Voff=0.37V Von=0.63V
*
C2 OUT_OFFDLY GND 1e-09
EROFF NROFF GND TABLE {V(VDD,GND)} =
+ (72,215.1896)
+ (100,215.1896)
+ (36,215.1896)
+ (50,215.1896)
R2 OUT_OFFDLY IN 10e9
GROFF OUT_OFFDLY IN VALUE = {V(OUT_OFFDLY,IN)/V(NROFF)}
*
EOUT_OFFREC OUT_OFFREC GND VALUE = { V(OUT_OFFDLY, GND)}
*
S_OFF OUT_OFFREC OUT IN GND  SWOFF
.MODEL SWOFF VSWITCH Roff=1e9 Ron=0.001 Voff=0.63V Von=0.37V
*
.ENDS
*
*TBBM
.SUBCKT Delay_SW_S2  IN VDD GND OUT
*
C1 OUT_ONDLY GND 1e-09
ERON NRON GND TABLE {V(VDD,GND)} =
+ (72,1350.0)
+ (100,1350.0)
+ (36,1350.0)
+ (50,1350.0)
R1 OUT_ONDLY IN 10e9
GRON OUT_ONDLY IN VALUE = {V(OUT_ONDLY,IN)/V(NRON)}
*
EOUT_ONREC OUT_ONREC GND VALUE = { V(OUT_ONDLY, GND)}
*
S_ON OUT_ONREC OUT IN GND  SWON
.MODEL SWON VSWITCH Roff=1e9 Ron=0.001 Voff=0.37V Von=0.63V
*
C2 OUT_OFFDLY GND 1e-09
EROFF NROFF GND TABLE {V(VDD,GND)} =
+ (72,1183.5428)
+ (100,1183.5428)
+ (36,1183.5428)
+ (50,1183.5428)
R2 OUT_OFFDLY IN 10e9
GROFF OUT_OFFDLY IN VALUE = {V(OUT_OFFDLY,IN)/V(NROFF)}
*
EOUT_OFFREC OUT_OFFREC GND VALUE = { V(OUT_OFFDLY, GND)}
*
S_OFF OUT_OFFREC OUT IN GND  SWOFF
.MODEL SWOFF VSWITCH Roff=1e9 Ron=0.001 Voff=0.63V Von=0.37V
*
.ENDS
*
*BUFFER
.SUBCKT Delay_SW_D2  IN VDD GND OUT
*
C1 OUT_ONDLY GND 1e-09
ERON NRON GND TABLE {V(VDD,GND)} =
+ (72,100.0)
+ (100,100.0)
+ (36,100.0)
+ (50,100.0)
R1 OUT_ONDLY IN 10e9
GRON OUT_ONDLY IN VALUE = {V(OUT_ONDLY,IN)/V(NRON)}
*
EOUT_ONREC OUT_ONREC GND VALUE = { V(OUT_ONDLY, GND)}
*
S_ON OUT_ONREC OUT IN GND  SWON
.MODEL SWON VSWITCH Roff=1e9 Ron=0.001 Voff=0.37V Von=0.63V
*
C2 OUT_OFFDLY GND 1e-09
EROFF NROFF GND TABLE {V(VDD,GND)} =
+ (72,215.1896)
+ (100,215.1896)
+ (36,215.1896)
+ (50,215.1896)
R2 OUT_OFFDLY IN 10e9
GROFF OUT_OFFDLY IN VALUE = {V(OUT_OFFDLY,IN)/V(NROFF)}
*
EOUT_OFFREC OUT_OFFREC GND VALUE = { V(OUT_OFFDLY, GND)}
*
S_OFF OUT_OFFREC OUT IN GND  SWOFF
.MODEL SWOFF VSWITCH Roff=1e9 Ron=0.001 Voff=0.63V Von=0.37V
*
.ENDS
*
*TBBM
.SUBCKT Delay_SW_S3  IN VDD GND OUT
*
C1 OUT_ONDLY GND 1e-09
ERON NRON GND TABLE {V(VDD,GND)} =
+ (72,1350.0)
+ (100,1350.0)
+ (36,1350.0)
+ (50,1350.0)
R1 OUT_ONDLY IN 10e9
GRON OUT_ONDLY IN VALUE = {V(OUT_ONDLY,IN)/V(NRON)}
*
EOUT_ONREC OUT_ONREC GND VALUE = { V(OUT_ONDLY, GND)}
*
S_ON OUT_ONREC OUT IN GND  SWON
.MODEL SWON VSWITCH Roff=1e9 Ron=0.001 Voff=0.37V Von=0.63V
*
C2 OUT_OFFDLY GND 1e-09
EROFF NROFF GND TABLE {V(VDD,GND)} =
+ (72,1183.5428)