.SUBCKT TMUX8108 A0 EN VSS S1 S2 S3 S4 D S8 S7 S6 S5 VDD GND A2 A1 
*Supply currents
X_U1    VSS GND I_VSS
X_U2    VDD GND I_VDD
*I/O diodes
X_U3    VSS S1 ESD_diode
X_U4    S1 VDD ESD_diode
X_U5    VSS S2 ESD_diode
X_U6    S2 VDD ESD_diode
X_U7    VSS S3 ESD_diode
X_U8    S3 VDD ESD_diode
X_U9    VSS S4 ESD_diode
X_U10    S4 VDD ESD_diode
X_U11    VSS S5 ESD_diode
X_U12    S5 VDD ESD_diode
X_U13    VSS S6 ESD_diode
X_U14    S6 VDD ESD_diode
X_U15    VSS S7 ESD_diode
X_U16    S7 VDD ESD_diode
X_U17    VSS S8 ESD_diode
X_U18    S8 VDD ESD_diode
X_U19    VSS D ESD_diode
X_U20    D VDD ESD_diode
*Comparators (VIH/VIL)
X_U21    VDD_L VDD VDD_NL GND COMPARATOR_VDD
X_U22    EN_L EN EN_NL GND COMPARATOR_EN
X_U23    A0_L A0 A0_NL GND COMPARATOR_A0
X_U24    A1_L A1 A1_NL GND COMPARATOR_A1
X_U25    A2_L A2 A2_NL GND COMPARATOR_A2
*Input delays
X_U26    VDD_NL VDD GND VDD_L Delay_VDD
R1    VDD_L  GND    50
X_U27    EN_NL VDD GND EN_L Delay_EN
R2    EN_L  GND    50
X_U28    A2_NL VDD GND A2_L Delay_A2
R3    A2_L  GND    50
X_U29    A1_NL VDD GND A1_L Delay_A1
R4    A1_L  GND    50
X_U30    A0_NL VDD GND A0_L Delay_A0
R5    A0_L  GND    50
*LOGIC
X_U31    VDD_L EN_L A2_L A1_L A0_L SW_S1_L SW_S2_L SW_S3_L SW_S4_L SW_S5_L SW_S6_L SW_S7_L SW_S8_L SW_D_L SW_S1D_L SW_S2D_L SW_S3D_L SW_S4D_L SW_S5D_L SW_S6D_L SW_S7D_L SW_S8D_L GND LOGIC
*Output delays
X_U32    SW_S1_L VDD GND SW_S1 Delay_SW_S1
X_U33    SW_S2_L VDD GND SW_S2 Delay_SW_S2
X_U34    SW_S3_L VDD GND SW_S3 Delay_SW_S3
X_U35    SW_S4_L VDD GND SW_S4 Delay_SW_S4
X_U36    SW_S5_L VDD GND SW_S5 Delay_SW_S5
X_U37    SW_S6_L VDD GND SW_S6 Delay_SW_S6
X_U38    SW_S7_L VDD GND SW_S7 Delay_SW_S7
X_U39    SW_S8_L VDD GND SW_S8 Delay_SW_S8
X_U40    SW_D_L VDD GND SW_D Delay_SW_D
X_U41    SW_S1D_L VDD GND SW_S1D Delay_SW_S1D
X_U42    SW_S2D_L VDD GND SW_S2D Delay_SW_S2D
X_U43    SW_S3D_L VDD GND SW_S3D Delay_SW_S3D
X_U44    SW_S4D_L VDD GND SW_S4D Delay_SW_S4D
X_U45    SW_S5D_L VDD GND SW_S5D Delay_SW_S5D
X_U46    SW_S6D_L VDD GND SW_S6D Delay_SW_S6D
X_U47    SW_S7D_L VDD GND SW_S7D Delay_SW_S7D
X_U48    SW_S8D_L VDD GND SW_S8D Delay_SW_S8D
*Switch I/O (COFF, CON, ION, IOFF, BW)
X_U49    S1 VSS VDD SW_S1 GND S1_IO
X_U50    S2 VSS VDD SW_S2 GND S2_IO
X_U51    S3 VSS VDD SW_S3 GND S3_IO
X_U52    S4 VSS VDD SW_S4 GND S4_IO
X_U53    S5 VSS VDD SW_S5 GND S5_IO
X_U54    S6 VSS VDD SW_S6 GND S6_IO
X_U55    S7 VSS VDD SW_S7 GND S7_IO
X_U56    S8 VSS VDD SW_S8 GND S8_IO
X_U57    D VSS VDD SW_D GND D_IO
*Switch blocks (Ron, OISO)
X_U58    S1 D VSS VDD GND SW_S1D SWITCH_S1
X_U59    S2 D VSS VDD GND SW_S2D SWITCH_S2
X_U60    S3 D VSS VDD GND SW_S3D SWITCH_S3
X_U61    S4 D VSS VDD GND SW_S4D SWITCH_S4
X_U62    S5 D VSS VDD GND SW_S5D SWITCH_S5
X_U63    S6 D VSS VDD GND SW_S6D SWITCH_S6
X_U64    S7 D VSS VDD GND SW_S7D SWITCH_S7
X_U65    S8 D VSS VDD GND SW_S8D SWITCH_S8
*switch to switch capacitance (XTALK)
C1 S1 S2 1.0474207760217132e-14
C2 S1 S3 1.0474207760217132e-14
C3 S1 S4 1.0474207760217132e-14
C4 S1 S8 1.0474207760217132e-14
C5 S1 S7 1.0474207760217132e-14
C6 S1 S6 1.0474207760217132e-14
C7 S1 S5 1.0474207760217132e-14
C8 S2 S3 1.0474207760217132e-14
C9 S2 S4 1.0474207760217132e-14
C10 S2 S8 1.0474207760217132e-14
C11 S2 S7 1.0474207760217132e-14
C12 S2 S6 1.0474207760217132e-14
C13 S2 S5 1.0474207760217132e-14
C14 S3 S4 1.0474207760217132e-14
C15 S3 S8 1.0474207760217132e-14
C16 S3 S7 1.0474207760217132e-14
C17 S3 S6 1.0474207760217132e-14
C18 S3 S5 1.0474207760217132e-14
C19 S4 S8 1.0474207760217132e-14
C20 S4 S7 1.0474207760217132e-14
C21 S4 S6 1.0474207760217132e-14
C22 S4 S5 1.0474207760217132e-14
C23 S8 S7 1.0474207760217132e-14
C24 S8 S6 1.0474207760217132e-14
C25 S8 S5 1.0474207760217132e-14
C26 S7 S6 1.0474207760217132e-14
C27 S7 S5 1.0474207760217132e-14
C28 S6 S5 1.0474207760217132e-14
*Charge injection blocks (Qc)
X_U66    S1 VSS VDD D SW_S1D GND GND QC_S1
X_U67    S2 VSS VDD D SW_S2D GND GND QC_S2
X_U68    S3 VSS VDD D SW_S3D GND GND QC_S3
X_U69    S4 VSS VDD D SW_S4D GND GND QC_S4
X_U70    S5 VSS VDD D SW_S5D GND GND QC_S5
X_U71    S6 VSS VDD D SW_S6D GND GND QC_S6
X_U72    S7 VSS VDD D SW_S7D GND GND QC_S7
X_U73    S8 VSS VDD D SW_S8D GND GND QC_S8
.ENDS TMUX8108 
*$
*These circuits add a series diode that simulates an ESD diode from IN (-) to OUT (+)
*This diode will not cause a failure when IN > OUT but may show a large increase in current consumption 
*$
.SUBCKT ESD_Diode IN OUT
*
.MODEL DCLAMP D(IS=1E-15 IBV=1E-13 ISR = 1E-15)
D1 IN OUT DCLAMP
*
.ENDS
*$
*These circuits add a parallel current source/sink to simulate supply current consumption, based on the table
*
.SUBCKT I_VDD VDD GND
*
EI_VDD NVDD GND TABLE {V(VDD,GND)} = 
+ (0.0,0.0)
+ (4.4,0.0001)
+ (4.5,0.00011)
+ (72.0,0.00028)
+ (100.0,0.00028)
*
GVDD VDD GND VALUE = {(V(NVDD)+1p)}
*
.ENDS
.SUBCKT I_VSS VSS GND
*
EI_VSS NVSS GND TABLE {V(VSS,GND)} = 
+ (-50.0,-0.00028)
+ (-36.0,-0.00028)
+ (-5.0,-0.00011)
+ (0.0,0.0)
*
GVSS VSS GND VALUE = {(V(NVSS)+1p)}
*
.ENDS
*
*These circuits compare the current state and the input voltage to find the new state
*if the current state is on (1) then we will change states if VIN goes below VIL (1 to 0)
*if the current state is on (0) then we will change states if VIN goes above VIH (0 to 1)
.SUBCKT COMPARATOR_VDD  STATE VIN NEWSTATE GND
EVIH VIH GND TABLE {V(VIN,GND)} = 
+ (0,0)
+ (4.399,0)
+ (4.4,1)
EVIL VIL GND TABLE {V(VIN,GND)} = 
+ (0,0)
+ (4.199,0)
+ (4.2,1)
EOUT NEWSTATE GND VALUE = { IF (V(STATE, GND)>0.63, V(VIH,GND), V(VIL,GND) ) }
.ENDS
*$
.SUBCKT COMPARATOR_EN  STATE VIN NEWSTATE GND
EVIH VIH GND TABLE {V(VIN,GND)} = 
+ (0,0)
+ (1.249,0)
+ (1.25,1)
EVIL VIL GND TABLE {V(VIN,GND)} = 
+ (0,0)
+ (0.849,0)
+ (0.85,1)
EOUT NEWSTATE GND VALUE = { IF (V(STATE, GND)>0.63, V(VIH,GND), V(VIL,GND) ) }
.ENDS
*$
.SUBCKT COMPARATOR_A0  STATE VIN NEWSTATE GND
EVIH VIH GND TABLE {V(VIN,GND)} = 
+ (0,0)
+ (1.249,0)
+ (1.25,1)
EVIL VIL GND TABLE {V(VIN,GND)} = 
+ (0,0)
+ (0.849,0)
+ (0.85,1)
EOUT NEWSTATE GND VALUE = { IF (V(STATE, GND)>0.63, V(VIH,GND), V(VIL,GND) ) }
.ENDS
*$
.SUBCKT COMPARATOR_A1  STATE VIN NEWSTATE GND
EVIH VIH GND TABLE {V(VIN,GND)} = 
+ (0,0)
+ (1.249,0)
+ (1.25,1)
EVIL VIL GND TABLE {V(VIN,GND)} = 
+ (0,0)
+ (0.849,0)
+ (0.85,1)
EOUT NEWSTATE GND VALUE = { IF (V(STATE, GND)>0.63, V(VIH,GND), V(VIL,GND) ) }
.ENDS
*$
.SUBCKT COMPARATOR_A2  STATE VIN NEWSTATE GND
EVIH VIH GND TABLE {V(VIN,GND)} = 
+ (0,0)
+ (1.249,0)
+ (1.25,1)
EVIL VIL GND TABLE {V(VIN,GND)} = 
+ (0,0)
+ (0.849,0)
+ (0.85,1)
EOUT NEWSTATE GND VALUE = { IF (V(STATE, GND)>0.63, V(VIH,GND), V(VIL,GND) ) }
.ENDS
*$
*These circuits handle all the logic for the device
*this does NOT handle timing delays or VIH VIL, all signals here are 1/0 logic
*VDD EN A2 A1 A0    SW_S1 SW_S2 SW_S3 SW_S4 SW_S5 SW_S6 SW_S7 SW_S8 SW_D SW_S1D SW_S2D SW_S3D SW_S4D SW_S5D SW_S6D SW_S7D SW_S8D 
*1   1  0  0  0     1     0     0     0     0     0     0     0     1    1      0      0      0      0      0      0      0      
*1   1  0  0  1     0     1     0     0     0     0     0     0     1    0      1      0      0      0      0      0      0      
*1   1  0  1  0     0     0     1     0     0     0     0     0     1    0      0      1      0      0      0      0      0      
*1   1  0  1  1     0     0     0     1     0     0     0     0     1    0      0      0      1      0      0      0      0      
*1   1  1  0  0     0     0     0     0     1     0     0     0     1    0      0      0      0      1      0      0      0      
*1   1  1  0  1     0     0     0     0     0     1     0     0     1    0      0      0      0      0      1      0      0      
*1   1  1  1  0     0     0     0     0     0     0     1     0     1    0      0      0      0      0      0      1      0      
*1   1  1  1  1     0     0     0     0     0     0     0     1     1    0      0      0      0      0      0      0      1      
*$
.SUBCKT LOGIC  LVDD LEN LA2 LA1 LA0 SW_S1 SW_S2 SW_S3 SW_S4 SW_S5 SW_S6 SW_S7 SW_S8 SW_D SW_S1D SW_S2D SW_S3D SW_S4D SW_S5D SW_S6D SW_S7D SW_S8D GND
*
*convert analog RC to 1/0 digital
ELVDD_DIG LVDD_DIG GND VALUE = {IF (V(LVDD,GND)>0.63,1, 0) }
ELEN_DIG LEN_DIG GND VALUE = {IF (V(LEN,GND)>0.63,1, 0) }
ELA2_DIG LA2_DIG GND VALUE = {IF (V(LA2,GND)>0.63,1, 0) }
ELA1_DIG LA1_DIG GND VALUE = {IF (V(LA1,GND)>0.63,1, 0) }
ELA0_DIG LA0_DIG GND VALUE = {IF (V(LA0,GND)>0.63,1, 0) }
*Create an inverse of all inputs in case they need to be used
ELVDD_DIGN LVDD_DIGN GND VALUE = { 1 - V(LVDD_DIG, GND)}
ELEN_DIGN LEN_DIGN GND VALUE = { 1 - V(LEN_DIG, GND)}
ELA2_DIGN LA2_DIGN GND VALUE = { 1 - V(LA2_DIG, GND)}
ELA1_DIGN LA1_DIGN GND VALUE = { 1 - V(LA1_DIG, GND)}
ELA0_DIGN LA0_DIGN GND VALUE = { 1 - V(LA0_DIG, GND)}
*
*Determine output states and rectify outputs
ELSW_S1 LSW_S1 GND VALUE = { V(LVDD_DIG,GND) * V(LEN_DIG,GND) * V(LA2_DIGN,GND) * V(LA1_DIGN,GND) * V(LA0_DIGN,GND) }
ESW_S1 SW_S1 GND VALUE = { IF (V(LSW_S1, GND)>0.5,1,0) }
ELSW_S2 LSW_S2 GND VALUE = { V(LVDD_DIG,GND) * V(LEN_DIG,GND) * V(LA2_DIGN,GND) * V(LA1_DIGN,GND) * V(LA0_DIG,GND) }
ESW_S2 SW_S2 GND VALUE = { IF (V(LSW_S2, GND)>0.5,1,0) }
ELSW_S3 LSW_S3 GND VALUE = { V(LVDD_DIG,GND) * V(LEN_DIG,GND) * V(LA2_DIGN,GND) * V(LA1_DIG,GND) * V(LA0_DIGN,GND) }
ESW_S3 SW_S3 GND VALUE = { IF (V(LSW_S3, GND)>0.5,1,0) }
ELSW_S4 LSW_S4 GND VALUE = { V(LVDD_DIG,GND) * V(LEN_DIG,GND) * V(LA2_DIGN,GND) * V(LA1_DIG,GND) * V(LA0_DIG,GND) }
ESW_S4 SW_S4 GND VALUE = { IF (V(LSW_S4, GND)>0.5,1,0) }
ELSW_S5 LSW_S5 GND VALUE = { V(LVDD_DIG,GND) * V(LEN_DIG,GND) * V(LA2_DIG,GND) * V(LA1_DIGN,GND) * V(LA0_DIGN,GND) }
ESW_S5 SW_S5 GND VALUE = { IF (V(LSW_S5, GND)>0.5,1,0) }
ELSW_S6 LSW_S6 GND VALUE = { V(LVDD_DIG,GND) * V(LEN_DIG,GND) * V(LA2_DIG,GND) * V(LA1_DIGN,GND) * V(LA0_DIG,GND) }
ESW_S6 SW_S6 GND VALUE = { IF (V(LSW_S6, GND)>0.5,1,0) }
ELSW_S7 LSW_S7 GND VALUE = { V(LVDD_DIG,GND) * V(LEN_DIG,GND) * V(LA2_DIG,GND) * V(LA1_DIG,GND) * V(LA0_DIGN,GND) }
ESW_S7 SW_S7 GND VALUE = { IF (V(LSW_S7, GND)>0.5,1,0) }
ELSW_S8 LSW_S8 GND VALUE = { V(LVDD_DIG,GND) * V(LEN_DIG,GND) * V(LA2_DIG,GND) * V(LA1_DIG,GND) * V(LA0_DIG,GND) }
ESW_S8 SW_S8 GND VALUE = { IF (V(LSW_S8, GND)>0.5,1,0) }
ELSW_D LSW_D GND VALUE = { V(LVDD_DIG,GND) * V(LEN_DIG,GND) * V(LA2_DIGN,GND) * V(LA1_DIGN,GND) * V(LA0_DIGN,GND)
+ + V(LVDD_DIG,GND) * V(LEN_DIG,GND) * V(LA2_DIGN,GND) * V(LA1_DIGN,GND) * V(LA0_DIG,GND) + V(LVDD_DIG,GND) 
+ * V(LEN_DIG,GND) * V(LA2_DIGN,GND) * V(LA1_DIG,GND) * V(LA0_DIGN,GND) + V(LVDD_DIG,GND) * V(LEN_DIG,GND) * V(LA2_DIGN,GND) * V(LA1_DIG,GND) * V(LA0_DIG,GND)
+ + V(LVDD_DIG,GND) * V(LEN_DIG,GND) * V(LA2_DIG,GND) * V(LA1_DIGN,GND) * V(LA0_DIGN,GND) + V(LVDD_DIG,GND) * V(LEN_DIG,GND) * V(LA2_DIG,GND) * V(LA1_DIGN,GND) * V(LA0_DIG,GND)
+ + V(LVDD_DIG,GND) * V(LEN_DIG,GND) * V(LA2_DIG,GND) * V(LA1_DIG,GND) * V(LA0_DIGN,GND) + V(LVDD_DIG,GND) * V(LEN_DIG,GND) * V(LA2_DIG,GND) * V(LA1_DIG,GND) * V(LA0_DIG,GND) }
ESW_D SW_D GND VALUE = { IF (V(LSW_D, GND)>0.5,1,0) }
ELSW_S1D LSW_S1D GND VALUE = { V(LVDD_DIG,GND) * V(LEN_DIG,GND) * V(LA2_DIGN,GND) * V(LA1_DIGN,GND) * V(LA0_DIGN,GND) }
ESW_S1D SW_S1D GND VALUE = { IF (V(LSW_S1D, GND)>0.5,1,0) }
ELSW_S2D LSW_S2D GND VALUE = { V(LVDD_DIG,GND) * V(LEN_DIG,GND) * V(LA2_DIGN,GND) * V(LA1_DIGN,GND) * V(LA0_DIG,GND) }
ESW_S2D SW_S2D GND VALUE = { IF (V(LSW_S2D, GND)>0.5,1,0) }
ELSW_S3D LSW_S3D GND VALUE = { V(LVDD_DIG,GND) * V(LEN_DIG,GND) * V(LA2_DIGN,GND) * V(LA1_DIG,GND) * V(LA0_DIGN,GND) }
ESW_S3D SW_S3D GND VALUE = { IF (V(LSW_S3D, GND)>0.5,1,0) }
ELSW_S4D LSW_S4D GND VALUE = { V(LVDD_DIG,GND) * V(LEN_DIG,GND) * V(LA2_DIGN,GND) * V(LA1_DIG,GND) * V(LA0_DIG,GND) }
ESW_S4D SW_S4D GND VALUE = { IF (V(LSW_S4D, GND)>0.5,1,0) }
ELSW_S5D LSW_S5D GND VALUE = { V(LVDD_DIG,GND) * V(LEN_DIG,GND) * V(LA2_DIG,GND) * V(LA1_DIGN,GND) * V(LA0_DIGN,GND) }
ESW_S5D SW_S5D GND VALUE = { IF (V(LSW_S5D, GND)>0.5,1,0) }
ELSW_S6D LSW_S6D GND VALUE = { V(LVDD_DIG,GND) * V(LEN_DIG,GND) * V(LA2_DIG,GND) * V(LA1_DIGN,GND) * V(LA0_DIG,GND) }
ESW_S6D SW_S6D GND VALUE = { IF (V(LSW_S6D, GND)>0.5,1,0) }
ELSW_S7D LSW_S7D GND VALUE = { V(LVDD_DIG,GND) * V(LEN_DIG,GND) * V(LA2_DIG,GND) * V(LA1_DIG,GND) * V(LA0_DIGN,GND) }
ESW_S7D SW_S7D GND VALUE = { IF (V(LSW_S7D, GND)>0.5,1,0) }
ELSW_S8D LSW_S8D GND VALUE = { V(LVDD_DIG,GND) * V(LEN_DIG,GND) * V(LA2_DIG,GND) * V(LA1_DIG,GND) * V(LA0_DIG,GND) }
ESW_S8D SW_S8D GND VALUE = { IF (V(LSW_S8D, GND)>0.5,1,0) }
*
.ENDS
*$
*These circuits add a RC delay in series to the In and OUT signal
*split delays depending on if IN is going high to low or low to high
*if IN is going high to low, the R needs to be adjusted by /0.46471 to convert the 0.37% time to 0.63%
*TON_TOFF_SUPPLY
.SUBCKT Delay_VDD  IN VDD GND OUT
*
C1 OUT_ONDLY GND 1e-09
ERON NRON GND TABLE {V(VDD,GND)} =
+ (5,1000.0)
+ (100,1000.0)
R1 OUT_ONDLY IN 10e9
GRON OUT_ONDLY IN VALUE = {V(OUT_ONDLY,IN)/V(NRON)}
*
EOUT_ONREC OUT_ONREC GND VALUE = { V(OUT_ONDLY, GND)}
*
S_ON OUT_ONREC OUT IN GND  SWON
.MODEL SWON VSWITCH Roff=1e9 Ron=0.001 Voff=0.37V Von=0.63V
*
C2 OUT_OFFDLY GND 1e-09
EROFF NROFF GND TABLE {V(VDD,GND)} =
+ (5,1075.948)
+ (100,1075.948)
R2 OUT_OFFDLY IN 10e9
GROFF OUT_OFFDLY IN VALUE = {V(OUT_OFFDLY,IN)/V(NROFF)}
*
EOUT_OFFREC OUT_OFFREC GND VALUE = { V(OUT_OFFDLY, GND)}
*
S_OFF OUT_OFFREC OUT IN GND  SWOFF
.MODEL SWOFF VSWITCH Roff=1e9 Ron=0.001 Voff=0.63V Von=0.37V
*
.ENDS
*
*TON_TOFF_EN
.SUBCKT Delay_EN  IN VDD GND OUT
*
C1 OUT_ONDLY GND 1e-09
ERON NRON GND TABLE {V(VDD,GND)} =
+ (72,100.0)
+ (100,100.0)
+ (36,100.0)
+ (50,100.0)
R1 OUT_ONDLY IN 10e9
GRON OUT_ONDLY IN VALUE = {V(OUT_ONDLY,IN)/V(NRON)}
*
EOUT_ONREC OUT_ONREC GND VALUE = { V(OUT_ONDLY, GND)}
*
S_ON OUT_ONREC OUT IN GND  SWON
.MODEL SWON VSWITCH Roff=1e9 Ron=0.001 Voff=0.37V Von=0.63V
*
C2 OUT_OFFDLY GND 1e-09
EROFF NROFF GND TABLE {V(VDD,GND)} =
+ (72,215.1896)
+ (100,215.1896)
+ (36,215.1896)
+ (50,215.1896)
R2 OUT_OFFDLY IN 10e9
GROFF OUT_OFFDLY IN VALUE = {V(OUT_OFFDLY,IN)/V(NROFF)}
*
EOUT_OFFREC OUT_OFFREC GND VALUE = { V(OUT_OFFDLY, GND)}
*
S_OFF OUT_OFFREC OUT IN GND  SWOFF
.MODEL SWOFF VSWITCH Roff=1e9 Ron=0.001 Voff=0.63V Von=0.37V
*
.ENDS
*
*TTRAN
.SUBCKT Delay_A0  IN VDD GND OUT
*
C1 OUT_ONDLY GND 1e-09
ERON NRON GND TABLE {V(VDD,GND)} =
+ (72,150.0)
+ (100,150.0)
+ (36,150.0)
+ (50,150.0)
R1 OUT_ONDLY IN 10e9
GRON OUT_ONDLY IN VALUE = {V(OUT_ONDLY,IN)/V(NRON)}
*
EOUT_ONREC OUT_ONREC GND VALUE = { V(OUT_ONDLY, GND)}
*
S_ON OUT_ONREC OUT IN GND  SWON
.MODEL SWON VSWITCH Roff=1e9 Ron=0.001 Voff=0.37V Von=0.63V
*
C2 OUT_OFFDLY GND 1e-09
EROFF NROFF GND TABLE {V(VDD,GND)} =
+ (72,322.7844)
+ (100,322.7844)
+ (36,322.7844)
+ (50,322.7844)
R2 OUT_OFFDLY IN 10e9
GROFF OUT_OFFDLY IN VALUE = {V(OUT_OFFDLY,IN)/V(NROFF)}
*
EOUT_OFFREC OUT_OFFREC GND VALUE = { V(OUT_OFFDLY, GND)}
*
S_OFF OUT_OFFREC OUT IN GND  SWOFF
.MODEL SWOFF VSWITCH Roff=1e9 Ron=0.001 Voff=0.63V Von=0.37V
*
.ENDS
*
*TTRAN
.SUBCKT Delay_A1  IN VDD GND OUT
*
C1 OUT_ONDLY GND 1e-09
ERON NRON GND TABLE {V(VDD,GND)} =
+ (72,150.0)
+ (100,150.0)
+ (36,150.0)
+ (50,150.0)
R1 OUT_ONDLY IN 10e9
GRON OUT_ONDLY IN VALUE = {V(OUT_ONDLY,IN)/V(NRON)}
*
EOUT_ONREC OUT_ONREC GND VALUE = { V(OUT_ONDLY, GND)}
*
S_ON OUT_ONREC OUT IN GND  SWON
.MODEL SWON VSWITCH Roff=1e9 Ron=0.001 Voff=0.37V Von=0.63V
*
C2 OUT_OFFDLY GND 1e-09
EROFF NROFF GND TABLE {V(VDD,GND)} =
+ (72,322.7844)
+ (100,322.7844)
+ (36,322.7844)
+ (50,322.7844)
R2 OUT_OFFDLY IN 10e9
GROFF OUT_OFFDLY IN VALUE = {V(OUT_OFFDLY,IN)/V(NROFF)}
*
EOUT_OFFREC OUT_OFFREC GND VALUE = { V(OUT_OFFDLY, GND)}
*
S_OFF OUT_OFFREC OUT IN GND  SWOFF
.MODEL SWOFF VSWITCH Roff=1e9 Ron=0.001 Voff=0.63V Von=0.37V
*
.ENDS
*
*TTRAN
.SUBCKT Delay_A2  IN VDD GND OUT
*
C1 OUT_ONDLY GND 1e-09
ERON NRON GND TABLE {V(VDD,GND)} =
+ (72,150.0)
+ (100,150.0)
+ (36,150.0)
+ (50,150.0)
R1 OUT_ONDLY IN 10e9
GRON OUT_ONDLY IN VALUE = {V(OUT_ONDLY,IN)/V(NRON)}
*
EOUT_ONREC OUT_ONREC GND VALUE = { V(OUT_ONDLY, GND)}
*
S_ON OUT_ONREC OUT IN GND  SWON
.MODEL SWON VSWITCH Roff=1e9 Ron=0.001 Voff=0.37V Von=0.63V
*
C2 OUT_OFFDLY GND 1e-09
EROFF NROFF GND TABLE {V(VDD,GND)} =
+ (72,322.7844)
+ (100,322.7844)
+ (36,322.7844)
+ (50,322.7844)
R2 OUT_OFFDLY IN 10e9
GROFF OUT_OFFDLY IN VALUE = {V(OUT_OFFDLY,IN)/V(NROFF)}
*
EOUT_OFFREC OUT_OFFREC GND VALUE = { V(OUT_OFFDLY, GND)}
*
S_OFF OUT_OFFREC OUT IN GND  SWOFF
.MODEL SWOFF VSWITCH Roff=1e9 Ron=0.001 Voff=0.63V Von=0.37V
*
.ENDS
*
*TBBM
.SUBCKT Delay_SW_S1  IN VDD GND OUT
*
C1 OUT_ONDLY GND 1e-09
ERON NRON GND TABLE {V(VDD,GND)} =
+ (72,1350.0)
+ (100,1350.0)
+ (36,1350.0)
+ (50,1350.0)
R1 OUT_ONDLY IN 10e9
GRON OUT_ONDLY IN VALUE = {V(OUT_ONDLY,IN)/V(NRON)}
*
EOUT_ONREC OUT_ONREC GND VALUE = { V(OUT_ONDLY, GND)}
*
S_ON OUT_ONREC OUT IN GND  SWON
.MODEL SWON VSWITCH Roff=1e9 Ron=0.001 Voff=0.37V Von=0.63V
*
C2 OUT_OFFDLY GND 1e-09
EROFF NROFF GND TABLE {V(VDD,GND)} =
+ (72,1183.5428)
+ (100,1183.5428)
+ (36,1183.5428)
+ (50,1183.5428)
R2 OUT_OFFDLY IN 10e9
GROFF OUT_OFFDLY IN VALUE = {V(OUT_OFFDLY,IN)/V(NROFF)}
*
EOUT_OFFREC OUT_OFFREC GND VALUE = { V(OUT_OFFDLY, GND)}
*
S_OFF OUT_OFFREC OUT IN GND  SWOFF
.MODEL SWOFF VSWITCH Roff=1e9 Ron=0.001 Voff=0.63V Von=0.37V
*
.ENDS
*
*TBBM
.SUBCKT Delay_SW_S2  IN VDD GND OUT
*
C1 OUT_ONDLY GND 1e-09
ERON NRON GND TABLE {V(VDD,GND)} =
+ (72,1350.0)
+ (100,1350.0)
+ (36,1350.0)
+ (50,1350.0)
R1 OUT_ONDLY IN 10e9
GRON OUT_ONDLY IN VALUE = {V(OUT_ONDLY,IN)/V(NRON)}
*
EOUT_ONREC OUT_ONREC GND VALUE = { V(OUT_ONDLY, GND)}
*
S_ON OUT_ONREC OUT IN GND  SWON
.MODEL SWON VSWITCH Roff=1e9 Ron=0.001 Voff=0.37V Von=0.63V
*
C2 OUT_OFFDLY GND 1e-09
EROFF NROFF GND TABLE {V(VDD,GND)} =
+ (72,1183.5428)
+ (100,1183.5428)
+ (36,1183.5428)
+ (50,1183.5428)
R2 OUT_OFFDLY IN 10e9
GROFF OUT_OFFDLY IN VALUE = {V(OUT_OFFDLY,IN)/V(NROFF)}
*
EOUT_OFFREC OUT_OFFREC GND VALUE = { V(OUT_OFFDLY, GND)}
*
S_OFF OUT_OFFREC OUT IN GND  SWOFF
.MODEL SWOFF VSWITCH Roff=1e9 Ron=0.001 Voff=0.63V Von=0.37V
*
.ENDS
*
*TBBM
.SUBCKT Delay_SW_S3  IN VDD GND OUT
*
C1 OUT_ONDLY GND 1e-09
ERON NRON GND TABLE {V(VDD,GND)} =
+ (72,1350.0)
+ (100,1350.0)
+ (36,1350.0)
+ (50,1350.0)
R1 OUT_ONDLY IN 10e9
GRON OUT_ONDLY IN VALUE = {V(OUT_ONDLY,IN)/V(NRON)}
*
EOUT_ONREC OUT_ONREC GND VALUE = { V(OUT_ONDLY, GND)}
*
S_ON OUT_ONREC OUT IN GND  SWON
.MODEL SWON VSWITCH Roff=1e9 Ron=0.001 Voff=0.37V Von=0.63V
*
C2 OUT_OFFDLY GND 1e-09
EROFF NROFF GND TABLE {V(VDD,GND)} =
+ (72,1183.5428)
+ (100,1183.5428)
+ (36,1183.5428)
+ (50,1183.5428)
R2 OUT_OFFDLY IN 10e9
GROFF OUT_OFFDLY IN VALUE = {V(OUT_OFFDLY,IN)/V(NROFF)}
*
EOUT_OFFREC OUT_OFFREC GND VALUE = { V(OUT_OFFDLY, GND)}
*
S_OFF OUT_OFFREC OUT IN GND  SWOFF
.MODEL SWOFF VSWITCH Roff=1e9 Ron=0.001 Voff=0.63V Von=0.37V
*
.ENDS
*
*TBBM
.SUBCKT Delay_SW_S4  IN VDD GND OUT
*
C1 OUT_ONDLY GND 1e-09
ERON NRON GND TABLE {V(VDD,GND)} =
+ (72,1350.0)
+ (100,1350.0)
+ (36,1350.0)
+ (50,1350.0)
R1 OUT_ONDLY IN 10e9
GRON OUT_ONDLY IN VALUE = {V(OUT_ONDLY,IN)/V(NRON)}
*
EOUT_ONREC OUT_ONREC GND VALUE = { V(OUT_ONDLY, GND)}
*
S_ON OUT_ONREC OUT IN GND  SWON
.MODEL SWON VSWITCH Roff=1e9 Ron=0.001 Voff=0.37V Von=0.63V
*
C2 OUT_OFFDLY GND 1e-09
EROFF NROFF GND TABLE {V(VDD,GND)} =
+ (72,1183.5428)
+ (100,1183.5428)
+ (36,1183.5428)
+ (50,1183.5428)
R2 OUT_OFFDLY IN 10e9
GROFF OUT_OFFDLY IN VALUE = {V(OUT_OFFDLY,IN)/V(NROFF)}
*
EOUT_OFFREC OUT_OFFREC GND VALUE = { V(OUT_OFFDLY, GND)}
*
S_OFF OUT_OFFREC OUT IN GND  SWOFF
.MODEL SWOFF VSWITCH Roff=1e9 Ron=0.001 Voff=0.63V Von=0.37V
*
.ENDS
*
*TBBM
.SUBCKT Delay_SW_S5  IN VDD GND OUT
*
C1 OUT_ONDLY GND 1e-09
ERON NRON GND TABLE {V(VDD,GND)} =
+ (72,1350.0)
+ (100,1350.0)
+ (36,1350.0)
+ (50,1350.0)
R1 OUT_ONDLY IN 10e9
GRON OUT_ONDLY IN VALUE = {V(OUT_ONDLY,IN)/V(NRON)}
*
EOUT_ONREC OUT_ONREC GND VALUE = { V(OUT_ONDLY, GND)}
*
S_ON OUT_ONREC OUT IN GND  SWON
.MODEL SWON VSWITCH Roff=1e9 Ron=0.001 Voff=0.37V Von=0.63V
*
C2 OUT_OFFDLY GND 1e-09
EROFF NROFF GND TABLE {V(VDD,GND)} =
+ (72,1183.5428)
+ (100,1183.5428)
+ (36,1183.5428)
+ (50,1183.5428)
R2 OUT_OFFDLY IN 10e9
GROFF OUT_OFFDLY IN VALUE = {V(OUT_OFFDLY,IN)/V(NROFF)}
*
EOUT_OFFREC OUT_OFFREC GND VALUE = { V(OUT_OFFDLY, GND)}
*
S_OFF OUT_OFFREC OUT IN GND  SWOFF
.MODEL SWOFF VSWITCH Roff=1e9 Ron=0.001 Voff=0.63V Von=0.37V
*
.ENDS
*
*TBBM
.SUBCKT Delay_SW_S6  IN VDD GND OUT
*
C1 OUT_ONDLY GND 1e-09
ERON NRON GND TABLE {V(VDD,GND)} =
+ (72,1350.0)
+ (100,1350.0)
+ (36,1350.0)
+ (50,1350.0)
R1 OUT_ONDLY IN 10e9
GRON OUT_ONDLY IN VALUE = {V(OUT_ONDLY,IN)/V(NRON)}
*
EOUT_ONREC OUT_ONREC GND VALUE = { V(OUT_ONDLY, GND)}
*
S_ON OUT_ONREC OUT IN GND  SWON
.MODEL SWON VSWITCH Roff=1e9 Ron=0.001 Voff=0.37V Von=0.63V
*
C2 OUT_OFFDLY GND 1e-09
EROFF NROFF GND TABLE {V(VDD,GND)} =
+ (72,1183.5428)
+ (100,1183.5428)
+ (36,1183.5428)
+ (50,1183.5428)
R2 OUT_OFFDLY IN 10e9
GROFF OUT_OFFDLY IN VALUE = {V(OUT_OFFDLY,IN)/V(NROFF)}
*
EOUT_OFFREC OUT_OFFREC GND VALUE = { V(OUT_OFFDLY, GND)}
*
S_OFF OUT_OFFREC OUT IN GND  SWOFF
.MODEL SWOFF VSWITCH Roff=1e9 Ron=0.001 Voff=0.63V Von=0.37V
*
.ENDS
*
*TBBM
.SUBCKT Delay_SW_S7  IN VDD GND OUT
*
C1 OUT_ONDLY GND 1e-09
ERON NRON GND TABLE {V(VDD,GND)} =
+ (72,1350.0)
+ (100,1350.0)
+ (36,1350.0)
+ (50,1350.0)
R1 OUT_ONDLY IN 10e9
GRON OUT_ONDLY IN VALUE = {V(OUT_ONDLY,IN)/V(NRON)}
*
EOUT_ONREC OUT_ONREC GND VALUE = { V(OUT_ONDLY, GND)}
*
S_ON OUT_ONREC OUT IN GND  SWON
.MODEL SWON VSWITCH Roff=1e9 Ron=0.001 Voff=0.37V Von=0.63V
*
C2 OUT_OFFDLY GND 1e-09
EROFF NROFF GND TABLE {V(VDD,GND)} =
+ (72,1183.5428)
+ (100,1183.5428)
+ (36,1183.5428)
+ (50,1183.5428)
R2 OUT_OFFDLY IN 10e9
GROFF OUT_OFFDLY IN VALUE = {V(OUT_OFFDLY,IN)/V(NROFF)}
*
EOUT_OFFREC OUT_OFFREC GND VALUE = { V(OUT_OFFDLY, GND)}
*
S_OFF OUT_OFFREC OUT IN GND  SWOFF
.MODEL SWOFF VSWITCH Roff=1e9 Ron=0.001 Voff=0.63V Von=0.37V
*
.ENDS
*
*TBBM
.SUBCKT Delay_SW_S8  IN VDD GND OUT
*
C1 OUT_ONDLY GND 1e-09
ERON NRON GND TABLE {V(VDD,GND)} =
+ (72,1350.0)
+ (100,1350.0)
+ (36,1350.0)
+ (50,1350.0)
R1 OUT_ONDLY IN 10e9
GRON OUT_ONDLY IN VALUE = {V(OUT_ONDLY,IN)/V(NRON)}
*
EOUT_ONREC OUT_ONREC GND VALUE = { V(OUT_ONDLY, GND)}
*
S_ON OUT_ONREC OUT IN GND  SWON
.MODEL SWON VSWITCH Roff=1e9 Ron=0.001 Voff=0.37V Von=0.63V
*
C2 OUT_OFFDLY GND 1e-09
EROFF NROFF GND TABLE {V(VDD,GND)} =
+ (72,1183.5428)
+ (100,1183.5428)
+ (36,1183.5428)
+ (50,1183.5428)
R2 OUT_OFFDLY IN 10e9
GROFF OUT_OFFDLY IN VALUE = {V(OUT_OFFDLY,IN)/V(NROFF)}
*
EOUT_OFFREC OUT_OFFREC GND VALUE = { V(OUT_OFFDLY, GND)}
*
S_OFF OUT_OFFREC OUT IN GND  SWOFF
.MODEL SWOFF VSWITCH Roff=1e9 Ron=0.001 Voff=0.63V Von=0.37V
*
.ENDS
*
*BUFFER
.SUBCKT Delay_SW_D  IN VDD GND OUT
*
C1 OUT_ONDLY GND 1e-09
ERON NRON GND TABLE {V(VDD,GND)} =
+ (72,100.0)
+ (100,100.0)
+ (36,100.0)
+ (50,100.0)
R1 OUT_ONDLY IN 10e9
GRON OUT_ONDLY IN VALUE = {V(OUT_ONDLY,IN)/V(NRON)}
*
EOUT_ONREC OUT_ONREC GND VALUE = { V(OUT_ONDLY, GND)}
*
S_ON OUT_ONREC OUT IN GND  SWON
.MODEL SWON VSWITCH Roff=1e9 Ron=0.001 Voff=0.37V Von=0.63V
*
C2 OUT_OFFDLY GND 1e-09
EROFF NROFF GND TABLE {V(VDD,GND)} =
+ (72,215.1896)
+ (100,215.1896)
+ (36,215.1896)
+ (50,215.1896)
R2 OUT_OFFDLY IN 10e9
GROFF OUT_OFFDLY IN VALUE = {V(OUT_OFFDLY,IN)/V(NROFF)}
*
EOUT_OFFREC OUT_OFFREC GND VALUE = { V(OUT_OFFDLY, GND)}
*
S_OFF OUT_OFFREC OUT IN GND  SWOFF
.MODEL SWOFF VSWITCH Roff=1e9 Ron=0.001 Voff=0.63V Von=0.37V
*
.ENDS
*
*TBBM
.SUBCKT Delay_SW_S1D  IN VDD GND OUT
*
C1 OUT_ONDLY GND 1e-09
ERON NRON GND TABLE {V(VDD,GND)} =
+ (72,1350.0)
+ (100,1350.0)
+ (36,1350.0)
+ (50,1350.0)
R1 OUT_ONDLY IN 10e9
GRON OUT_ONDLY IN VALUE = {V(OUT_ONDLY,IN)/V(NRON)}
*
EOUT_ONREC OUT_ONREC GND VALUE = { V(OUT_ONDLY, GND)}
*
S_ON OUT_ONREC OUT IN GND  SWON
.MODEL SWON VSWITCH Roff=1e9 Ron=0.001 Voff=0.37V Von=0.63V
*
C2 OUT_OFFDLY GND 1e-09
EROFF NROFF GND TABLE {V(VDD,GND)} =
+ (72,1183.5428)
+ (100,1183.5428)
+ (36,1183.5428)
+ (50,1183.5428)
R2 OUT_OFFDLY IN 10e9
GROFF OUT_OFFDLY IN VALUE = {V(OUT_OFFDLY,IN)/V(NROFF)}
*
EOUT_OFFREC OUT_OFFREC GND VALUE = { V(OUT_OFFDLY, GND)}
*
S_OFF OUT_OFFREC OUT IN GND  SWOFF
.MODEL SWOFF VSWITCH Roff=1e9 Ron=0.001 Voff=0.63V Von=0.37V
*
.ENDS
*
*TBBM
.SUBCKT Delay_SW_S2D  IN VDD GND OUT
*
C1 OUT_ONDLY GND 1e-09
ERON NRON GND TABLE {V(VDD,GND)} =
+ (72,1350.0)
+ (100,1350.0)
+ (36,1350.0)
+ (50,1350.0)
R1 OUT_ONDLY IN 10e9
GRON OUT_ONDLY IN VALUE = {V(OUT_ONDLY,IN)/V(NRON)}
*
EOUT_ONREC OUT_ONREC GND VALUE = { V(OUT_ONDLY, GND)}
*
S_ON OUT_ONREC OUT IN GND  SWON
.MODEL SWON VSWITCH Roff=1e9 Ron=0.001 Voff=0.37V Von=0.63V
*
C2 OUT_OFFDLY GND 1e-09
EROFF NROFF GND TABLE {V(VDD,GND)} =
+ (72,1183.5428)
+ (100,1183.5428)
+ (36,1183.5428)
+ (50,1183.5428)
R2 OUT_OFFDLY IN 10e9
GROFF OUT_OFFDLY IN VALUE = {V(OUT_OFFDLY,IN)/V(NROFF)}
*
EOUT_OFFREC OUT_OFFREC GND VALUE = { V(OUT_OFFDLY, GND)}
*
S_OFF OUT_OFFREC OUT IN GND  SWOFF
.MODEL SWOFF VSWITCH Roff=1e9 Ron=0.001 Voff=0.63V Von=0.37V
*
.ENDS
*
*TBBM
.SUBCKT Delay_SW_S3D  IN VDD GND OUT
*
C1 OUT_ONDLY GND 1e-09
ERON NRON GND TABLE {V(VDD,GND)} =
+ (72,1350.0)
+ (100,1350.0)
+ (36,1350.0)
+ (50,1350.0)
R1 OUT_ONDLY IN 10e9
GRON OUT_ONDLY IN VALUE = {V(OUT_ONDLY,IN)/V(NRON)}
*
EOUT_ONREC OUT_ONREC GND VALUE = { V(OUT_ONDLY, GND)}
*
S_ON OUT_ONREC OUT IN GND  SWON
.MODEL SWON VSWITCH Roff=1e9 Ron=0.001 Voff=0.37V Von=0.63V
*
C2 OUT_OFFDLY GND 1e-09
EROFF NROFF GND TABLE {V(VDD,GND)} =
+ (72,1183.5428)
+ (100,1183.5428)
+ (36,1183.5428)
+ (50,1183.5428)
R2 OUT_OFFDLY IN 10e9
GROFF OUT_OFFDLY IN VALUE = {V(OUT_OFFDLY,IN)/V(NROFF)}
*
EOUT_OFFREC OUT_OFFREC GND VALUE = { V(OUT_OFFDLY, GND)}
*
S_OFF OUT_OFFREC OUT IN GND  SWOFF
.MODEL SWOFF VSWITCH Roff=1e9 Ron=0.001 Voff=0.63V Von=0.37V
*
.ENDS
*
*TBBM
.SUBCKT Delay_SW_S4D  IN VDD GND OUT
*
C1 OUT_ONDLY GND 1e-09
ERON NRON GND TABLE {V(VDD,GND)} =
+ (72,1350.0)
+ (100,1350.0)
+ (36,1350.0)
+ (50,1350.0)
R1 OUT_ONDLY IN 10e9
GRON OUT_ONDLY IN VALUE = {V(OUT_ONDLY,IN)/V(NRON)}
*
EOUT_ONREC OUT_ONREC GND VALUE = { V(OUT_ONDLY, GND)}
*
S_ON OUT_ONREC OUT IN GND  SWON
.MODEL SWON VSWITCH Roff=1e9 Ron=0.001 Voff=0.37V Von=0.63V
*
C2 OUT_OFFDLY GND 1e-09
EROFF NROFF GND TABLE {V(VDD,GND)} =
+ (72,1183.5428)
+ (100,1183.5428)
+ (36,1183.5428)
+ (50,1183.5428)
R2 OUT_OFFDLY IN 10e9
GROFF OUT_OFFDLY IN VALUE = {V(OUT_OFFDLY,IN)/V(NROFF)}
*
EOUT_OFFREC OUT_OFFREC GND VALUE = { V(OUT_OFFDLY, GND)}
*
S_OFF OUT_OFFREC OUT IN GND  SWOFF
.MODEL SWOFF VSWITCH Roff=1e9 Ron=0.001 Voff=0.63V Von=0.37V
*
.ENDS
*
*TBBM
.SUBCKT Delay_SW_S5D  IN VDD GND OUT
*
C1 OUT_ONDLY GND 1e-09
ERON NRON GND TABLE {V(VDD,GND)} =
+ (72,1350.0)
+ (100,1350.0)
+ (36,1350.0)
+ (50,1350.0)
R1 OUT_ONDLY IN 10e9
GRON OUT_ONDLY IN VALUE = {V(OUT_ONDLY,IN)/V(NRON)}
*
EOUT_ONREC OUT_ONREC GND VALUE = { V(OUT_ONDLY, GND)}
*
S_ON OUT_ONREC OUT IN GND  SWON
.MODEL SWON VSWITCH Roff=1e9 Ron=0.001 Voff=0.37V Von=0.63V
*
C2 OUT_OFFDLY GND 1e-09
EROFF NROFF GND TABLE {V(VDD,GND)} =
+ (72,1183.5428)
+ (100,1183.5428)
+ (36,1183.5428)
+ (50,1183.5428)
R2 OUT_OFFDLY IN 10e9
GROFF OUT_OFFDLY IN VALUE = {V(OUT_OFFDLY,IN)/V(NROFF)}
*
EOUT_OFFREC OUT_OFFREC GND VALUE = { V(OUT_OFFDLY, GND)}
*
S_OFF OUT_OFFREC OUT IN GND  SWOFF
.MODEL SWOFF VSWITCH Roff=1e9 Ron=0.001 Voff=0.63V Von=0.37V
*
.ENDS
*
*TBBM
.SUBCKT Delay_SW_S6D  IN VDD GND OUT
*
C1 OUT_ONDLY GND 1e-09
ERON NRON GND TABLE {V(VDD,GND)} =
+ (72,1350.0)
+ (100,1350.0)
+ (36,1350.0)
+ (50,1350.0)
R1 OUT_ONDLY IN 10e9
GRON OUT_ONDLY IN VALUE = {V(OUT_ONDLY,IN)/V(NRON)}
*
EOUT_ONREC OUT_ONREC GND VALUE = { V(OUT_ONDLY, GND)}
*
S_ON OUT_ONREC OUT IN GND  SWON
.MODEL SWON VSWITCH Roff=1e9 Ron=0.001 Voff=0.37V Von=0.63V
*
C2 OUT_OFFDLY GND 1e-09
EROFF NROFF GND TABLE {V(VDD,GND)} =
+ (72,1183.5428)
+ (100,1183.5428)
+ (36,1183.5428)
+ (50,1183.5428)
R2 OUT_OFFDLY IN 10e9
GROFF OUT_OFFDLY IN VALUE = {V(OUT_OFFDLY,IN)/V(NROFF)}
*
EOUT_OFFREC OUT_OFFREC GND VALUE = { V(OUT_OFFDLY, GND)}
*
S_OFF OUT_OFFREC OUT IN GND  SWOFF
.MODEL SWOFF VSWITCH Roff=1e9 Ron=0.001 Voff=0.63V Von=0.37V
*
.ENDS
*
*TBBM
.SUBCKT Delay_SW_S7D  IN VDD GND OUT
*
C1 OUT_ONDLY GND 1e-09
ERON NRON GND TABLE {V(VDD,GND)} =
+ (72,1350.0)
+ (100,1350.0)
+ (36,1350.0)
+ (50,1350.0)
R1 OUT_ONDLY IN 10e9
GRON OUT_ONDLY IN VALUE = {V(OUT_ONDLY,IN)/V(NRON)}
*
EOUT_ONREC OUT_ONREC GND VALUE = { V(OUT_ONDLY, GND)}
*
S_ON OUT_ONREC OUT IN GND  SWON
.MODEL SWON VSWITCH Roff=1e9 Ron=0.001 Voff=0.37V Von=0.63V
*
C2 OUT_OFFDLY GND 1e-09
EROFF NROFF GND TABLE {V(VDD,GND)} =
+ (72,1183.5428)
+ (100,1183.5428)
+ (36,1183.5428)
+ (50,1183.5428)
R2 OUT_OFFDLY IN 10e9
GROFF OUT_OFFDLY IN VALUE = {V(OUT_OFFDLY,IN)/V(NROFF)}
*
EOUT_OFFREC OUT_OFFREC GND VALUE = { V(OUT_OFFDLY, GND)}
*
S_OFF OUT_OFFREC OUT IN GND  SWOFF
.MODEL SWOFF VSWITCH Roff=1e9 Ron=0.001 Voff=0.63V Von=0.37V
*
.ENDS
*
*TBBM
.SUBCKT Delay_SW_S8D  IN VDD GND OUT
*
C1 OUT_ONDLY GND 1e-09
ERON NRON GND TABLE {V(VDD,GND)} =
+ (72,1350.0)
+ (100,1350.0)
+ (36,1350.0)
+ (50,1350.0)
R1 OUT_ONDLY IN 10e9
GRON OUT_ONDLY IN VALUE = {V(OUT_ONDLY,IN)/V(NRON)}
*
EOUT_ONREC OUT_ONREC GND VALUE = { V(OUT_ONDLY, GND)}
*
S_ON OUT_ONREC OUT IN GND  SWON
.MODEL SWON VSWITCH Roff=1e9 Ron=0.001 Voff=0.37V Von=0.63V
*
C2 OUT_OFFDLY GND 1e-09
EROFF NROFF GND TABLE {V(VDD,GND)} =
+ (72,1183.5428)
+ (100,1183.5428)
+ (36,1183.5428)
+ (50,1183.5428)
R2 OUT_OFFDLY IN 10e9