.SUBCKT TMUX7348F A0 EN VSS S1 S2 S3 S4 D VFN SF FF VFP S8 S7 S6 S5 VDD GND A2 A1


X_U101 A0 EN VSS S1_IN S2_IN S3_IN S4_IN D A1 A2 GND VDD S5_IN S6_IN S7_IN S8_IN VFP VFN TMUX7348_IN


X_U1    VSS GND I_VSS
X_U2    VDD GND I_VDD
X_U3    VFP GND I_VDD
X_U4    VFN GND I_VSS

*X_U001  VFN DA ESD_diode
*X_U002  VFN DB ESD_diode
*X_U003  DA VFP ESD_diode
*X_U004  DB VFP ESD_diode



X_U112 S1 VFP VFN PF1 NF1 F1 Fault_Detect_Block_Sx
X_U122 S2 VFP VFN PF2 NF2 F2 Fault_Detect_Block_Sx
X_U132 S3 VFP VFN PF3 NF3 F3 Fault_Detect_Block_Sx
X_U142 S4 VFP VFN PF4 NF4 F4 Fault_Detect_Block_Sx
X_U152 S5 VFP VFN PF5 NF5 F5 Fault_Detect_Block_Sx
X_U162 S6 VFP VFN PF6 NF6 F6 Fault_Detect_Block_Sx
X_U172 S7 VFP VFN PF7 NF7 F7 Fault_Detect_Block_Sx
X_U182 S8 VFP VFN PF8 NF8 F8 Fault_Detect_Block_Sx



X_U113 A0 A1 A2 FaultLogicOutputPos_S1 PF1 Control_and_Fault_Logic_S1
X_U123 A0 A1 A2 FaultLogicOutputPos_S2 PF2 Control_and_Fault_Logic_S2
X_U133 A0 A1 A2 FaultLogicOutputPos_S3 PF3 Control_and_Fault_Logic_S3
X_U143 A0 A1 A2 FaultLogicOutputPos_S4 PF4 Control_and_Fault_Logic_S4
X_U153 A0 A1 A2 FaultLogicOutputPos_S5 PF5 Control_and_Fault_Logic_S5
X_U163 A0 A1 A2 FaultLogicOutputPos_S6 PF6 Control_and_Fault_Logic_S6
X_U173 A0 A1 A2 FaultLogicOutputPos_S7 PF7 Control_and_Fault_Logic_S7
X_U183 A0 A1 A2 FaultLogicOutputPos_S8 PF8 Control_and_Fault_Logic_S8


X_U114 A0 A1 A2 FaultLogicOutputNeg_S1 NF1 Control_and_Fault_Logic_S1
X_U124 A0 A1 A2 FaultLogicOutputNeg_S2 NF2 Control_and_Fault_Logic_S2
X_U134 A0 A1 A2 FaultLogicOutputNeg_S3 NF3 Control_and_Fault_Logic_S3
X_U144 A0 A1 A2 FaultLogicOutputNeg_S4 NF4 Control_and_Fault_Logic_S4
X_U154 A0 A1 A2 FaultLogicOutputNeg_S5 NF5 Control_and_Fault_Logic_S5
X_U164 A0 A1 A2 FaultLogicOutputNeg_S6 NF6 Control_and_Fault_Logic_S6
X_U174 A0 A1 A2 FaultLogicOutputNeg_S7 NF7 Control_and_Fault_Logic_S7
X_U184 A0 A1 A2 FaultLogicOutputNeg_S8 NF8 Control_and_Fault_Logic_S8



X_U115 FaultLogicOutputPos_S1 VFN GND DelayedPosFault_S1 Delay_pos
X_U125 FaultLogicOutputPos_S2 VFN GND DelayedPosFault_S2 Delay_pos
X_U135 FaultLogicOutputPos_S3 VFN GND DelayedPosFault_S3 Delay_pos
X_U145 FaultLogicOutputPos_S4 VFN GND DelayedPosFault_S4 Delay_pos
X_U155 FaultLogicOutputPos_S5 VFN GND DelayedPosFault_S5 Delay_pos
X_U165 FaultLogicOutputPos_S6 VFN GND DelayedPosFault_S6 Delay_pos
X_U175 FaultLogicOutputPos_S7 VFN GND DelayedPosFault_S7 Delay_pos
X_U185 FaultLogicOutputPos_S8 VFN GND DelayedPosFault_S8 Delay_pos


X_U116 FaultLogicOutputNeg_S1 VFN GND DelayedNegFault_S1 Delay_neg
X_U126 FaultLogicOutputNeg_S2 VFN GND DelayedNegFault_S2 Delay_neg
X_U136 FaultLogicOutputNeg_S3 VFN GND DelayedNegFault_S3 Delay_neg
X_U146 FaultLogicOutputNeg_S4 VFN GND DelayedNegFault_S4 Delay_neg
X_U156 FaultLogicOutputNeg_S5 VFN GND DelayedNegFault_S5 Delay_neg
X_U166 FaultLogicOutputNeg_S6 VFN GND DelayedNegFault_S6 Delay_neg
X_U176 FaultLogicOutputNeg_S7 VFN GND DelayedNegFault_S7 Delay_neg
X_U186 FaultLogicOutputNeg_S8 VFN GND DelayedNegFault_S8 Delay_neg



X_FaultSwitch_S1  FINALFAULTLOGIC_S1 0 S1 S1_IN SCHEMATIC1_FaultSwitch_Sx
X_FaultSwitch_S2  FINALFAULTLOGIC_S2 0 S2 S2_IN SCHEMATIC1_FaultSwitch_Sx
X_FaultSwitch_S3  FINALFAULTLOGIC_S3 0 S3 S3_IN SCHEMATIC1_FaultSwitch_Sx
X_FaultSwitch_S4  FINALFAULTLOGIC_S4 0 S4 S4_IN SCHEMATIC1_FaultSwitch_Sx
X_FaultSwitch_S5  FINALFAULTLOGIC_S5 0 S5 S5_IN SCHEMATIC1_FaultSwitch_Sx
X_FaultSwitch_S6  FINALFAULTLOGIC_S6 0 S6 S6_IN SCHEMATIC1_FaultSwitch_Sx
X_FaultSwitch_S7  FINALFAULTLOGIC_S7 0 S7 S7_IN SCHEMATIC1_FaultSwitch_Sx
X_FaultSwitch_S8  FINALFAULTLOGIC_S8 0 S8 S8_IN SCHEMATIC1_FaultSwitch_Sx



E_ABM1         FINALFAULTLOGIC_S1 0 VALUE {
+  if(V(DELAYEDPOSFAULT_S1)+V(DELAYEDNEGFAULT_S1)>0.1,1,0)     }

E_ABM2         FINALFAULTLOGIC_S2 0 VALUE {
+  if(V(DELAYEDPOSFAULT_S2)+V(DELAYEDNEGFAULT_S2)>0.1,1,0)     }

E_ABM3         FINALFAULTLOGIC_S3 0 VALUE {
+  if(V(DELAYEDPOSFAULT_S3)+V(DELAYEDNEGFAULT_S3)>0.1,1,0)     }

E_ABM4         FINALFAULTLOGIC_S4 0 VALUE {
+  if(V(DELAYEDPOSFAULT_S4)+V(DELAYEDNEGFAULT_S4)>0.1,1,0)     }

E_ABM5         FINALFAULTLOGIC_S5 0 VALUE {
+  if(V(DELAYEDPOSFAULT_S5)+V(DELAYEDNEGFAULT_S5)>0.1,1,0)     }

E_ABM6         FINALFAULTLOGIC_S6 0 VALUE {
+  if(V(DELAYEDPOSFAULT_S6)+V(DELAYEDNEGFAULT_S6)>0.1,1,0)     }

E_ABM7         FINALFAULTLOGIC_S7 0 VALUE {
+  if(V(DELAYEDPOSFAULT_S7)+V(DELAYEDNEGFAULT_S7)>0.1,1,0)     }

E_ABM8         FINALFAULTLOGIC_S8 0 VALUE {
+  if(V(DELAYEDPOSFAULT_S8)+V(DELAYEDNEGFAULT_S8)>0.1,1,0)     }



X_U117 FaultLogicOutputPos_S1 FaultLogicOutputNeg_S1 VFN VFP D Drain_Fault_Event_Sx
X_U127 FaultLogicOutputPos_S2 FaultLogicOutputNeg_S2 VFN VFP D Drain_Fault_Event_Sx
X_U137 FaultLogicOutputPos_S3 FaultLogicOutputNeg_S3 VFN VFP D Drain_Fault_Event_Sx
X_U147 FaultLogicOutputPos_S4 FaultLogicOutputNeg_S4 VFN VFP D Drain_Fault_Event_Sx
X_U157 FaultLogicOutputPos_S5 FaultLogicOutputNeg_S5 VFN VFP D Drain_Fault_Event_Sx
X_U167 FaultLogicOutputPos_S6 FaultLogicOutputNeg_S6 VFN VFP D Drain_Fault_Event_Sx
X_U177 FaultLogicOutputPos_S7 FaultLogicOutputNeg_S7 VFN VFP D Drain_Fault_Event_Sx
X_U187 FaultLogicOutputPos_S8 FaultLogicOutputNeg_S8 VFN VFP D Drain_Fault_Event_Sx

R_REN EN 0 4e9
R_RA0 A0 0 4e9
R_RA1 A1 0 4e9
R_RA2 A2 0 4e9


**FF BLOCK

E_ABM9         FF_PreDelay 0 VALUE {
+  if(V(F1)+V(F2)+V(F3)+V(F4)+V(F5)+V(F6)+V(F7)+V(F8)>0.1,0,1)     }


X_FFDelay FF_PreDelay VSS GND FF_Switch_Ctrl Delay_FF_Flag

X_FF_OpenDrain    FF_SWITCH_CTRL 0 FF FF_PULLDOWN SCHEMATIC1_FF_OpenDrain

R_R105         0 FF_PULLDOWN  30 TC=0,0 

**FF BLOCK ENDS

**SF BLOCK

E_ABM10        SF_PreDelay 0 VALUE {
+  if(V(FaultLogicOutputPos_S1)+V(FaultLogicOutputPos_S2)+V(FaultLogicOutputPos_S3)+V(FaultLogicOutputPos_S4)+V(FaultLogicOutputPos_S5)+V(FaultLogicOutputPos_S6)+V(FaultLogicOutputPos_S7)+V(FaultLogicOutputPos_S8)
+ +V( FaultLogicOutputNeg_S1)+V( FaultLogicOutputNeg_S2)+V( FaultLogicOutputNeg_S3)+V( FaultLogicOutputNeg_S4)+V( FaultLogicOutputNeg_S5)+V( FaultLogicOutputNeg_S6)+V( FaultLogicOutputNeg_S7)+V( FaultLogicOutputNeg_S8)>0.1,0,1)     }


X_SFDelay SF_PreDelay VSS GND SF_Switch_Ctrl Delay_FF_Flag

X_SF_OpenDrain    SF_SWITCH_CTRL 0 SF SF_PULLDOWN SCHEMATIC1_FF_OpenDrain

R_R106         0 SF_PULLDOWN  30 TC=0,0 


**SF BLOCK ENDS




*X_U118 S1 VSS VDD DelayedPosFault_S1 GND OverVoltageLeakageS 
*X_U128 S2 VSS VDD DelayedPosFault_S2 GND OverVoltageLeakageS 
*X_U138 S3 VSS VDD DelayedPosFault_S3 GND OverVoltageLeakageS 
*X_U148 S4 VSS VDD DelayedPosFault_S4 GND OverVoltageLeakageS
*X_U158 S5 VSS VDD DelayedPosFault_S5 GND OverVoltageLeakageS 
*X_U168 S6 VSS VDD DelayedPosFault_S6 GND OverVoltageLeakageS 
*X_U178 S7 VSS VDD DelayedPosFault_S7 GND OverVoltageLeakageS 
*X_U188 S8 VSS VDD DelayedPosFault_S8 GND OverVoltageLeakageS

*X_U119 D VSS VDD DelayedPosFault_S1 GND OverVoltageLeakageD 
*X_U129 D VSS VDD DelayedPosFault_S2 GND OverVoltageLeakageD 
*X_U139 D VSS VDD DelayedPosFault_S3 GND OverVoltageLeakageD 
*X_U149 D VSS VDD DelayedPosFault_S4 GND OverVoltageLeakageD 
*X_U159 D VSS VDD DelayedPosFault_S5 GND OverVoltageLeakageD 
*X_U169 D VSS VDD DelayedPosFault_S6 GND OverVoltageLeakageD 
*X_U179 D VSS VDD DelayedPosFault_S7 GND OverVoltageLeakageD 
*X_U189 D VSS VDD DelayedPosFault_S8 GND OverVoltageLeakageD 







*R_R101 S1_IN S1 0.001
*R_R102 S2_IN S2 0.001
*R_R103 S3_IN S3 1
*R_R104 S4_IN S4 1
*R_R105 S5_IN S5 1
*R_R106 S6_IN S6 1
*R_R107 S7_IN S7 1
*R_R108 S8_IN S8 1

.ENDS TMUX7348F





.subckt SCHEMATIC1_FF_OpenDrain 1 2 3 4  
S_FF_OpenDrain         3 4 1 2 _FF_OpenDrain
RS_FF_OpenDrain         1 2 1G
.MODEL         _FF_OpenDrain VSWITCH Roff=1Meg Ron=1 Voff=.5 Von=0
.ends SCHEMATIC1_FF_OpenDrain





.subckt SCHEMATIC1_FaultSwitch_Sx 1 2 3 4  
S_FaultSwitch_Sx         3 4 1 2 _FaultSwitch_Sx
RS_FaultSwitch_Sx         1 2 1G
.MODEL         _FaultSwitch_Sx VSWITCH Roff=1e9 Ron=.001 Voff=0.67 Von=0.37
.ends SCHEMATIC1_FaultSwitch_Sx





.SUBCKT Fault_Detect_Block_Sx Sx VDD VSS PFx NFx Fx

E_ABM10         NFx 0 VALUE { if( V(Sx)<V(VSS)-0.7,1,0)    }
E_ABM8         PFx 0 VALUE { if( V(Sx)>V(VDD)+0.7,1,0)    }
E_ABM9         Fx 0 VALUE { if( V(PFx) + V(NFx) > 0V ,1,0)    }

.ENDS Fault_Detect_Block_Sx









.SUBCKT OverVoltageLeakageS Sx_IN VSS VDD Fx GND

* Leakage table IOverOFF
EIOverOFF NIOverOFF GND TABLE {V(VDD,VSS)} = 
+ (0,1e-9)
+ (12,1e-9)
+ (15,1e-9)
+ (20,1e-9)
+ (36,1e-9)
*
* Leakage table IoverON
EIOverON NIOverON GND TABLE {V(VDD,VSS)} = 
+ (0,1e-9)
+ (10,1e-9)
+ (15,1e-9)
*
GLEAK Sx_IN GND VALUE = { IF (V(Fx, GND)>0.63,V(NIOverON),V(NIOverOFF)) }
*

.ENDS OverVoltageLeakageS


.SUBCKT OverVoltageLeakageD D_IN VSS VDD Fx GND

* Leakage table IOverOFF
EIOverOFF NIOverOFF GND TABLE {V(VDD,VSS)} = 
+ (0,0.000001)
+ (12,0.000001)
+ (15,0.000001)
+ (20,0.000001)
+ (36,0.000001)
*
* Leakage table IoverON
EIOverON NIOverON GND TABLE {V(VDD,VSS)} = 
+ (0,1e-9)
+ (10,1e-9)
+ (15,1e-9)
*
GLEAK D_IN GND VALUE = { IF (V(Fx, GND)>0.63,V(NIOverON),V(NIOverOFF)) }
*

.ENDS OverVoltageLeakageD





.SUBCKT Control_and_Fault_Logic_S1 A0 A1 A2 Fault_Logic_Output Fault_Logic


X_A0_ST    A0 0 A0_LOGIC_INPUT N177965 FaultLogicBlockAlone_A0_ST
V_V3         N177965 0 1
R_R19         0 A0_LOGIC_INPUT  1k TC=0,0 
 
X_A1_ST    A1 0 A1_LOGIC_INPUT N177981 FaultLogicBlockAlone_A1_ST 
V_V4         N177981 0 1
R_R16         0 A1_LOGIC_INPUT  1k TC=0,0 

X_A2_ST    A2 0 A2_LOGIC_INPUT N177997 FaultLogicBlockAlone_A2_ST 
V_V5         N177997 0 1
R_R17         0 A2_LOGIC_INPUT  1k TC=0,0

*X_A3_ST    EN 0 EN_LOGIC N178013 FaultLogicBlockAlone_A3_ST
*V_V6         N178013 0 1
*R_R18         0 EN_LOGIC  1k TC=0,0 

E_ABM11         STATE_LOGIC 0 VALUE {
+  if(V(A2_LOGIC_INPUT)+V(A1_LOGIC_INPUT)+V(A0_LOGIC_INPUT)<0.5,1,0)    }

 
E_ABM13         FAULT_LOGIC_OUTPUT 0 VALUE {
+  if(V(FAULT_LOGIC)+V(STATE_LOGIC)>1.5,1,0)    }



.ENDS Control_and_Fault_Logic_S1




.SUBCKT Control_and_Fault_Logic_S2 A0 A1 A2 Fault_Logic_Output Fault_Logic

X_A0_ST    A0 0 A0_LOGIC_INPUT N177965 FaultLogicBlockAlone_A0_ST
V_V3         N177965 0 1
R_R19         0 A0_LOGIC_INPUT  1k TC=0,0 
 
X_A1_ST    A1 0 A1_LOGIC_INPUT N177981 FaultLogicBlockAlone_A1_ST 
V_V4         N177981 0 1
R_R16         0 A1_LOGIC_INPUT  1k TC=0,0 

X_A2_ST    A2 0 A2_LOGIC_INPUT N177997 FaultLogicBlockAlone_A2_ST 
V_V5         N177997 0 1
R_R17         0 A2_LOGIC_INPUT  1k TC=0,0

*X_A3_ST    EN 0 EN_LOGIC N178013 FaultLogicBlockAlone_A3_ST
*V_V6         N178013 0 1
*R_R18         0 EN_LOGIC  1k TC=0,0 

E_ABM11         STATE_LOGIC 0 VALUE {
+  if(-V(A2_LOGIC_INPUT)-V(A1_LOGIC_INPUT)+V(A0_LOGIC_INPUT)>0.5,1,0)    }
 
E_ABM13         FAULT_LOGIC_OUTPUT 0 VALUE {
+  if(V(FAULT_LOGIC)+V(STATE_LOGIC)>1.5,1,0)    }


.ENDS Control_and_Fault_Logic_S2





.SUBCKT Control_and_Fault_Logic_S3 A0 A1 A2 Fault_Logic_Output Fault_Logic

X_A0_ST    A0 0 A0_LOGIC_INPUT N177965 FaultLogicBlockAlone_A0_ST
V_V3         N177965 0 1
R_R19         0 A0_LOGIC_INPUT  1k TC=0,0 
 
X_A1_ST    A1 0 A1_LOGIC_INPUT N177981 FaultLogicBlockAlone_A1_ST 
V_V4         N177981 0 1
R_R16         0 A1_LOGIC_INPUT  1k TC=0,0 

X_A2_ST    A2 0 A2_LOGIC_INPUT N177997 FaultLogicBlockAlone_A2_ST 
V_V5         N177997 0 1
R_R17         0 A2_LOGIC_INPUT  1k TC=0,0

*X_A3_ST    EN 0 EN_LOGIC N178013 FaultLogicBlockAlone_A3_ST
*V_V6         N178013 0 1
*R_R18         0 EN_LOGIC  1k TC=0,0 

E_ABM11         STATE_LOGIC 0 VALUE {
+  if(-V(A2_LOGIC_INPUT)+V(A1_LOGIC_INPUT)-V(A0_LOGIC_INPUT)>0.5,1,0)    }
 
E_ABM13         FAULT_LOGIC_OUTPUT 0 VALUE {
+  if(V(FAULT_LOGIC)+V(STATE_LOGIC)>2.5,1,0)    }



.ENDS Control_and_Fault_Logic_S3





.SUBCKT Control_and_Fault_Logic_S4 A0 A1 A2 Fault_Logic_Output Fault_Logic

X_A0_ST    A0 0 A0_LOGIC_INPUT N177965 FaultLogicBlockAlone_A0_ST
V_V3         N177965 0 1
R_R19         0 A0_LOGIC_INPUT  1k TC=0,0 
 
X_A1_ST    A1 0 A1_LOGIC_INPUT N177981 FaultLogicBlockAlone_A1_ST 
V_V4         N177981 0 1
R_R16         0 A1_LOGIC_INPUT  1k TC=0,0 

X_A2_ST    A2 0 A2_LOGIC_INPUT N177997 FaultLogicBlockAlone_A2_ST 
V_V5         N177997 0 1
R_R17         0 A2_LOGIC_INPUT  1k TC=0,0

*X_A3_ST    EN 0 EN_LOGIC N178013 FaultLogicBlockAlone_A3_ST
*V_V6         N178013 0 1
*R_R18         0 EN_LOGIC  1k TC=0,0 

E_ABM11         STATE_LOGIC 0 VALUE {
+  if(-V(A2_LOGIC_INPUT)+V(A1_LOGIC_INPUT)+V(A0_LOGIC_INPUT)>1.5,1,0)    }
 
E_ABM13         FAULT_LOGIC_OUTPUT 0 VALUE {
+  if(V(FAULT_LOGIC)+V(STATE_LOGIC)>2.5,1,0)    }

.ENDS Control_and_Fault_Logic_S4






.SUBCKT Control_and_Fault_Logic_S5 A0 A1 A2 Fault_Logic_Output Fault_Logic

X_A0_ST    A0 0 A0_LOGIC_INPUT N177965 FaultLogicBlockAlone_A0_ST
V_V3         N177965 0 1
R_R19         0 A0_LOGIC_INPUT  1k TC=0,0 
 
X_A1_ST    A1 0 A1_LOGIC_INPUT N177981 FaultLogicBlockAlone_A1_ST 
V_V4         N177981 0 1
R_R16         0 A1_LOGIC_INPUT  1k TC=0,0 

X_A2_ST    A2 0 A2_LOGIC_INPUT N177997 FaultLogicBlockAlone_A2_ST 
V_V5         N177997 0 1
R_R17         0 A2_LOGIC_INPUT  1k TC=0,0

*X_A3_ST    EN 0 EN_LOGIC N178013 FaultLogicBlockAlone_A3_ST
*V_V6         N178013 0 1
*R_R18         0 EN_LOGIC  1k TC=0,0 

E_ABM11         STATE_LOGIC 0 VALUE {
+  if(V(A2_LOGIC_INPUT)-V(A1_LOGIC_INPUT)-V(A0_LOGIC_INPUT)>0.5,1,0)    }
 
E_ABM13         FAULT_LOGIC_OUTPUT 0 VALUE {
+  if(V(FAULT_LOGIC)+V(STATE_LOGIC)>2.5,1,0)    }



.ENDS Control_and_Fault_Logic_S5






.SUBCKT Control_and_Fault_Logic_S6 A0 A1 A2 Fault_Logic_Output Fault_Logic

X_A0_ST    A0 0 A0_LOGIC_INPUT N177965 FaultLogicBlockAlone_A0_ST
V_V3         N177965 0 1
R_R19         0 A0_LOGIC_INPUT  1k TC=0,0 
 
X_A1_ST    A1 0 A1_LOGIC_INPUT N177981 FaultLogicBlockAlone_A1_ST 
V_V4         N177981 0 1
R_R16         0 A1_LOGIC_INPUT  1k TC=0,0 

X_A2_ST    A2 0 A2_LOGIC_INPUT N177997 FaultLogicBlockAlone_A2_ST 
V_V5         N177997 0 1
R_R17         0 A2_LOGIC_INPUT  1k TC=0,0

*X_A3_ST    EN 0 EN_LOGIC N178013 FaultLogicBlockAlone_A3_ST
*V_V6         N178013 0 1
*R_R18         0 EN_LOGIC  1k TC=0,0 

E_ABM11         STATE_LOGIC 0 VALUE {
+  if(V(A2_LOGIC_INPUT)-V(A1_LOGIC_INPUT)-V(A0_LOGIC_INPUT)>0.5,1,0)    }
 
E_ABM13         FAULT_LOGIC_OUTPUT 0 VALUE {
+  if(V(FAULT_LOGIC)+V(STATE_LOGIC)>2.5,1,0)    }



.ENDS Control_and_Fault_Logic_S6






.SUBCKT Control_and_Fault_Logic_S7 A0 A1 A2 Fault_Logic_Output Fault_Logic

X_A0_ST    A0 0 A0_LOGIC_INPUT N177965 FaultLogicBlockAlone_A0_ST
V_V3         N177965 0 1
R_R19         0 A0_LOGIC_INPUT  1k TC=0,0 
 
X_A1_ST    A1 0 A1_LOGIC_INPUT N177981 FaultLogicBlockAlone_A1_ST 
V_V4         N177981 0 1
R_R16         0 A1_LOGIC_INPUT  1k TC=0,0 

X_A2_ST    A2 0 A2_LOGIC_INPUT N177997 FaultLogicBlockAlone_A2_ST 
V_V5         N177997 0 1
R_R17         0 A2_LOGIC_INPUT  1k TC=0,0

*X_A3_ST    EN 0 EN_LOGIC N178013 FaultLogicBlockAlone_A3_ST
*V_V6         N178013 0 1
*R_R18         0 EN_LOGIC  1k TC=0,0 

E_ABM11         STATE_LOGIC 0 VALUE {
+  if(V(A2_LOGIC_INPUT)+V(A1_LOGIC_INPUT)-V(A0_LOGIC_INPUT)>1.5,1,0)    }
 
E_ABM13         FAULT_LOGIC_OUTPUT 0 VALUE {
+  if(V(FAULT_LOGIC)+V(STATE_LOGIC)>2.5,1,0)    }

.ENDS Control_and_Fault_Logic_S7






.SUBCKT Control_and_Fault_Logic_S8 A0 A1 A2 Fault_Logic_Output Fault_Logic

X_A0_ST    A0 0 A0_LOGIC_INPUT N177965 FaultLogicBlockAlone_A0_ST
V_V3         N177965 0 1
R_R19         0 A0_LOGIC_INPUT  1k TC=0,0 
 
X_A1_ST    A1 0 A1_LOGIC_INPUT N177981 FaultLogicBlockAlone_A1_ST 
V_V4         N177981 0 1
R_R16         0 A1_LOGIC_INPUT  1k TC=0,0 

X_A2_ST    A2 0 A2_LOGIC_INPUT N177997 FaultLogicBlockAlone_A2_ST 
V_V5         N177997 0 1
R_R17         0 A2_LOGIC_INPUT  1k TC=0,0

*X_A3_ST    EN 0 EN_LOGIC N178013 FaultLogicBlockAlone_A3_ST
*V_V6         N178013 0 1
*R_R18         0 EN_LOGIC  1k TC=0,0 

E_ABM11         STATE_LOGIC 0 VALUE {
+  if(V(A2_LOGIC_INPUT)+V(A1_LOGIC_INPUT)+V(A0_LOGIC_INPUT)>2.5,1,0)    }

E_ABM13         FAULT_LOGIC_OUTPUT 0 VALUE {
+  if(V(FAULT_LOGIC)+V(STATE_LOGIC)>2.5,1,0)    }


.ENDS Control_and_Fault_Logic_S8




.subckt FaultLogicBlockAlone_A0_ST 1 2 3 4  
S_A0_ST         3 4 1 2 _A0_ST
RS_A0_ST         1 2 1G
.MODEL         _A0_ST VSWITCH Roff=1e9 Ron=0.001 VH=.25 VT=1.05 TD=0
.ends FaultLogicBlockAlone_A0_ST

.subckt FaultLogicBlockAlone_A1_ST 1 2 3 4  
S_A1_ST         3 4 1 2 _A1_ST
RS_A1_ST         1 2 1G
.MODEL         _A1_ST VSWITCH Roff=1e9 Ron=0.001 VH=.25 VT=1.05 TD=0
.ends FaultLogicBlockAlone_A1_ST

.subckt FaultLogicBlockAlone_A2_ST 1 2 3 4  
S_A2_ST         3 4 1 2 _A2_ST
RS_A2_ST         1 2 1G
.MODEL         _A2_ST VSWITCH Roff=1e9 Ron=0.001 VH=.25 VT=1.05 TD=0
.ends FaultLogicBlockAlone_A2_ST

.subckt FaultLogicBlockAlone_A3_ST 1 2 3 4  
S_A3_ST         3 4 1 2 _A3_ST
RS_A3_ST         1 2 1G
.MODEL         _A3_ST VSWITCH Roff=1e9 Ron=0.001 VH=.25 VT=1.05 TD=0
.ends FaultLogicBlockAlone_A3_ST






.SUBCKT Delay_FF_Flag IN VSS GND OUT
*
*Response positive
C1 OUT_ONDLY GND 1e-09
ERON NRON GND TABLE {V(VSS,GND)} =
+(-22,665.0)
+ (-12, 665.0)
+ (-0.1,665.0)
+ (0,665.0)

R1 OUT_ONDLY IN 10e9

GRON OUT_ONDLY IN VALUE = {V(OUT_ONDLY,IN)/V(NRON)}
*
EOUT_ONREC OUT_ONREC GND VALUE = { V(OUT_ONDLY, GND)}
*
S_ON OUT_ONREC OUT IN GND  SWON
.MODEL SWON VSWITCH Roff=1e9 Ron=0.001 VH = 0.4 VT= 0.5 TD = 0
*
C2 OUT_OFFDLY GND 1e-9
EROFF NROFF GND TABLE {V(VSS,GND)} =
*Recovery Positive
+(-22,75.0)
+ (-12, 75.0)
+ (-0.1,75.0)
+ (0,75.0)

R2 OUT_OFFDLY IN 10e9
GROFF OUT_OFFDLY IN VALUE = {V(OUT_OFFDLY,IN)/V(NROFF)}
*
EOUT_OFFREC OUT_OFFREC GND VALUE = { V(OUT_OFFDLY, GND)}
*
S_OFF OUT_OFFREC OUT IN GND  SWOFF
.MODEL SWOFF VSWITCH Roff=1e9 Ron=0.001 Voff=0.63V Von=0.37V
*
.ENDS Delay_FF_Flag
*









.SUBCKT Delay_pos IN VSS GND OUT
*
*Response positive
C1 OUT_ONDLY GND 1e-09
ERON NRON GND TABLE {V(VSS,GND)} =
+(-22,5.0)
+ (-12,5.0)
+ (-0.1,5.0)
+ (0,550.0)

R1 OUT_ONDLY IN 10e9

GRON OUT_ONDLY IN VALUE = {V(OUT_ONDLY,IN)/V(NRON)}
*
EOUT_ONREC OUT_ONREC GND VALUE = { V(OUT_ONDLY, GND)}
*
S_ON OUT_ONREC OUT IN GND  SWON
.MODEL SWON VSWITCH Roff=1e9 Ron=0.001 Voff=0.37V Von=0.63V
*
C2 OUT_OFFDLY GND 1e-9
EROFF NROFF GND TABLE {V(VSS,GND)} =
*Recovery Positive
+(-22,280.0)
+ (-12,280.0)
+ (-0.1,280.0)
+ (0,280.0)

R2 OUT_OFFDLY IN 10e9
GROFF OUT_OFFDLY IN VALUE = {V(OUT_OFFDLY,IN)/V(NROFF)}
*
EOUT_OFFREC OUT_OFFREC GND VALUE = { V(OUT_OFFDLY, GND)}
*
S_OFF OUT_OFFREC OUT IN GND  SWOFF
.MODEL SWOFF VSWITCH Roff=1e9 Ron=0.001 Voff=0.63V Von=0.37V
*
.ENDS Delay_pos
*



.SUBCKT Delay_neg IN VDD GND OUT
*
*Response Negative
C1 OUT_ONDLY GND 1e-09
ERON NRON GND TABLE {V(VDD,GND)} =
+(-22,650.0)
+ (-12,650.0)
+ (-0.1,650.0)
+ (0,1500.0)

R1 OUT_ONDLY IN 10e9
GRON OUT_ONDLY IN VALUE = {V(OUT_ONDLY,IN)/V(NRON)}
*
EOUT_ONREC OUT_ONREC GND VALUE = { V(OUT_ONDLY, GND)}
*
S_ON OUT_ONREC OUT IN GND  SWON
.MODEL SWON VSWITCH Roff=1e9 Ron=0.001 Voff=0.37V Von=0.63V
*
C2 OUT_OFFDLY GND 1e-9
EROFF NROFF GND TABLE {V(VDD,GND)} =
*Recovery Negative
+(-22,522.0)
+ (-12,522.0)
+ (-0.1,522.0)
+ (0,535.0)


R2 OUT_OFFDLY IN 10e9
GROFF OUT_OFFDLY IN VALUE = {V(OUT_OFFDLY,IN)/V(NROFF)}
*
EOUT_OFFREC OUT_OFFREC GND VALUE = { V(OUT_OFFDLY, GND)}
*
S_OFF OUT_OFFREC OUT IN GND  SWOFF
.MODEL SWOFF VSWITCH Roff=1e9 Ron=0.001 Voff=0.63V Von=0.37V
*
.ENDS Delay_neg
*


.SUBCKT Drain_Fault_Event_Sx PFx NFx VSS VDD D


R_R22         PFX PFXDRRISE  40 TC=0,0 
C_C3         0 PFXDRRISE  1n  TC=0,0 
X_PFxRiseSwitch    PFX 0 PFXDRRISE PFXSWITCHCONTROLINPUT
+  SCHEMATIC1_PFxRiseSwitch 

R_R23         PFX PFXDRFALL  800 TC=0,0 
C_C4         0 PFXDRFALL  1.5n  TC=0,0 
X_PFxFallSwtich    PFX 0 PFXDRFALL PFXSWITCHCONTROLINPUT
+  SCHEMATIC1_PFxFallSwtich 

*R_R27         VSS_40KIN VSS  40k TC=0,0 
*X_DRVDDSwitch    PFXSWITCHCONTROLINPUT 0 VDD_40KIN D SCHEMATIC1_DRVDDSwitch 
X_DRVDDSwitch    PFXSWITCHCONTROLINPUT 0 VDD D SCHEMATIC1_DRVDDSwitch


R_R26         NFX NFXDRRISE  40 TC=0,0
C_C6         0 NFXDRRISE  1n  TC=0,0 
X_NFxRiseSwitch    NFX 0 NFXDRRISE NFXSWITCHCONTROLINPUT
+  SCHEMATIC1_NFxRiseSwitch 


R_R28         NFX NFXDRFALL  800 TC=0,0
C_C7         0 NFXDRFALL  1.5n  TC=0,0

X_NFxFallSwitch    NFX 0 NFXDRFALL NFXSWITCHCONTROLINPUT
+  SCHEMATIC1_NFxFallSwitch 

*R_R25         VDD_40KIN VDD  40k TC=0,0
*X_DRVSSSwitch    NFXSWITCHCONTROLINPUT 0 VSS_40KIN D SCHEMATIC1_DRVSSSwitch
X_DRVSSSwitch    NFXSWITCHCONTROLINPUT 0 VSS CAP_WIRE2 SCHEMATIC1_DRVSSSwitch 


X_Cap_Neg_Time    NFX 0 D CAP_WIRE SCHEMATIC2_Cap_Neg_Time 
C_C8         CAP_WIRE2 0  40p  TC=0,0 
R_Damp       CAP_WIRE CAP_WIRE2 500 


.ENDS Drain_Fault_Event_Sx


.subckt SCHEMATIC2_Cap_Neg_Time 1 2 3 4  
S_Cap_Neg_Time         3 4 1 2 _Cap_Neg_Time
RS_Cap_Neg_Time         1 2 1G
.MODEL         _Cap_Neg_Time VSWITCH Roff=100e9 Ron=0.001 Voff=0.1 Von=0.9
.ends SCHEMATIC2_Cap_Neg_Time



.subckt SCHEMATIC1_NFxRiseSwitch 1 2 3 4  
S_NFxRiseSwitch         3 4 1 2 _NFxRiseSwitch
RS_NFxRiseSwitch         1 2 1G
.MODEL         _NFxRiseSwitch VSWITCH Roff=100e9 Ron=0.001 Voff=0.37 Von=0.63
.ends SCHEMATIC1_NFxRiseSwitch

.subckt SCHEMATIC1_DRVDDSwitch 1 2 3 4  
S_DRVDDSwitch         3 4 1 2 _DRVDDSwitch
RS_DRVDDSwitch         1 2 1G
.MODEL         _DRVDDSwitch VSWITCH Roff=1000e9 Ron=50k Voff=0.37 Von=0.63
.ends SCHEMATIC1_DRVDDSwitch

.subckt SCHEMATIC1_NFxFallSwitch 1 2 3 4  
S_NFxFallSwitch         3 4 1 2 _NFxFallSwitch
RS_NFxFallSwitch         1 2 1G
.MODEL         _NFxFallSwitch VSWITCH Roff=100e9 Ron=0.001 Voff=0.63 Von=0.37
.ends SCHEMATIC1_NFxFallSwitch

.subckt SCHEMATIC1_PFxRiseSwitch 1 2 3 4  
S_PFxRiseSwitch         3 4 1 2 _PFxRiseSwitch
RS_PFxRiseSwitch         1 2 1G
.MODEL         _PFxRiseSwitch VSWITCH Roff=100e9 Ron=0.001 Voff=0.37 Von=0.63
.ends SCHEMATIC1_PFxRiseSwitch

.subckt SCHEMATIC1_PFxFallSwtich 1 2 3 4  
S_PFxFallSwtich         3 4 1 2 _PFxFallSwtich
RS_PFxFallSwtich         1 2 1G
.MODEL         _PFxFallSwtich VSWITCH Roff=100e9 Ron=0.001 Voff=0.63 Von=0.37
.ends SCHEMATIC1_PFxFallSwtich

.subckt SCHEMATIC1_DRVSSSwitch 1 2 3 4  
S_DRVSSSwitch         3 4 1 2 _DRVSSSwitch
RS_DRVSSSwitch         1 2 1G
.MODEL         _DRVSSSwitch VSWITCH Roff=1000e9 Ron=40k Voff=0.37 Von=0.63
.ends SCHEMATIC1_DRVSSSwitch














.SUBCKT TMUX7348_IN A0 EN VSS_IN S1_IN S2_IN S3_IN S4_IN D A1 A2 GND VDD_IN S5_IN S6_IN S7_IN S8_IN VFP VFN
*Supply currents

E_ABM1         VDD 0 VALUE { if(V(VDD_IN)>V(VFP),V(VFP),V(VDD_IN))     }
E_ABM2         VSS 0 VALUE { if(V(VSS_IN)>V(VFN),V(VSS_IN),V(VFN))     }




*I/O diodes
*V_Vn60   NegSixtyProtectV 0 -60
*V_Vp60   PosSixtyProtectV 0 60
*X_U19    NegSixtyProtectV D ESD_diode
*X_U20    D PosSixtyProtectV ESD_diode

*Comparators (VIH/VIL)
X_U21    VDD_L VDD_IN VDD_NL GND COMPARATOR_VDD
X_U22    EN_L EN EN_NL GND COMPARATOR_EN
X_U23    A0_L A0 A0_NL GND COMPARATOR_A0
X_U24    A1_L A1 A1_NL GND COMPARATOR_A1
X_U25    A2_L A2 A2_NL GND COMPARATOR_A2
*Input delays
X_U26    VDD_NL VDD GND VDD_L Delay_VDD
R1    VDD_L  GND    50
X_U27    EN_NL VDD GND EN_L Delay_EN
R2    EN_L  GND    50
X_U28    A2_NL VDD GND A2_L Delay_A2
R3    A2_L  GND    50
X_U29    A1_NL VDD GND A1_L Delay_A1
R4    A1_L  GND    50
X_U30    A0_NL VDD GND A0_L Delay_A0
R5    A0_L  GND    50
*LOGIC
X_U31    VDD_L EN_L A2_L A1_L A0_L SW_S1_L SW_S2_L SW_S3_L SW_S4_L SW_S5_L SW_S6_L SW_S7_L SW_S8_L SW_D_L SW_S1D_L SW_S2D_L SW_S3D_L SW_S4D_L SW_S5D_L SW_S6D_L SW_S7D_L SW_S8D_L GND LOGIC
*Output delays
X_U32    SW_S1_L VDD GND SW_S1 Delay_SW_S1
X_U33    SW_S2_L VDD GND SW_S2 Delay_SW_S2
X_U34    SW_S3_L VDD GND SW_S3 Delay_SW_S3
X_U35    SW_S4_L VDD GND SW_S4 Delay_SW_S4
X_U36    SW_S5_L VDD GND SW_S5 Delay_SW_S5
X_U37    SW_S6_L VDD GND SW_S6 Delay_SW_S6
X_U38    SW_S7_L VDD GND SW_S7 Delay_SW_S7
X_U39    SW_S8_L VDD GND SW_S8 Delay_SW_S8
X_U40    SW_D_L VDD GND SW_D Delay_SW_D
X_U41    SW_S1D_L VDD GND SW_S1D Delay_SW_S1D
X_U42    SW_S2D_L VDD GND SW_S2D Delay_SW_S2D
X_U43    SW_S3D_L VDD GND SW_S3D Delay_SW_S3D
X_U44    SW_S4D_L VDD GND SW_S4D Delay_SW_S4D
X_U45    SW_S5D_L VDD GND SW_S5D Delay_SW_S5D
X_U46    SW_S6D_L VDD GND SW_S6D Delay_SW_S6D
X_U47    SW_S7D_L VDD GND SW_S7D Delay_SW_S7D
X_U48    SW_S8D_L VDD GND SW_S8D Delay_SW_S8D
*Switch I/O (COFF, CON, ION, IOFF, BW)
X_U49    D VSS_IN VDD_IN SW_D GND D_IO
X_U50    S1_IN VSS_IN VDD_IN SW_S1_IN GND S1_IN_IO
X_U51    S2_IN VSS_IN VDD_IN SW_S2_IN GND S2_IN_IO
X_U52    S3_IN VSS_IN VDD_IN SW_S3_IN GND S3_IN_IO
X_U53    S4_IN VSS_IN VDD_IN SW_S4_IN GND S4_IN_IO
X_U54    S5_IN VSS_IN VDD_IN SW_S5_IN GND S5_IN_IO
X_U55    S6_IN VSS_IN VDD_IN SW_S6_IN GND S6_IN_IO
X_U56    S7_IN VSS_IN VDD_IN SW_S7_IN GND S7_IN_IO
X_U57    S8_IN VSS_IN VDD_IN SW_S8_IN GND S8_IN_IO
*Switch blocks (Ron, OISO)
X_U58    S1_IN D VSS VDD GND SW_S1D SWITCH_S1_IN
X_U59    S2_IN D VSS VDD GND SW_S2D SWITCH_S2_IN
X_U60    S3_IN D VSS VDD GND SW_S3D SWITCH_S3_IN
X_U61    S4_IN D VSS VDD GND SW_S4D SWITCH_S4_IN
X_U62    S5_IN D VSS VDD GND SW_S5D SWITCH_S5_IN
X_U63    S6_IN D VSS VDD GND SW_S6D SWITCH_S6_IN
X_U64    S7_IN D VSS VDD GND SW_S7D SWITCH_S7_IN
X_U65    S8_IN D VSS VDD GND SW_S8D SWITCH_S8_IN
*switch to switch capacitance (XTALK)
C1 S1_IN S2_IN 1.5915502266942658e-14
C2 S1_IN S3_IN 1.5915502266942658e-14
C3 S1_IN S4_IN 1.5915502266942658e-14
C4 S1_IN S5_IN 1.5915502266942658e-14
C5 S1_IN S6_IN 1.5915502266942658e-14
C6 S1_IN S7_IN 1.5915502266942658e-14
C7 S1_IN S8_IN 1.5915502266942658e-14
C8 S2_IN S3_IN 1.5915502266942658e-14
C9 S2_IN S4_IN 1.5915502266942658e-14
C10 S2_IN S5_IN 1.5915502266942658e-14
C11 S2_IN S6_IN 1.5915502266942658e-14
C12 S2_IN S7_IN 1.5915502266942658e-14
C13 S2_IN S8_IN 1.5915502266942658e-14
C14 S3_IN S4_IN 1.5915502266942658e-14
C15 S3_IN S5_IN 1.5915502266942658e-14
C16 S3_IN S6_IN 1.5915502266942658e-14
C17 S3_IN S7_IN 1.5915502266942658e-14
C18 S3_IN S8_IN 1.5915502266942658e-14
C19 S4_IN S5_IN 1.5915502266942658e-14
C20 S4_IN S6_IN 1.5915502266942658e-14
C21 S4_IN S7_IN 1.5915502266942658e-14
C22 S4_IN S8_IN 1.5915502266942658e-14
C23 S5_IN S6_IN 1.5915502266942658e-14
C24 S5_IN S7_IN 1.5915502266942658e-14
C25 S5_IN S8_IN 1.5915502266942658e-14
C26 S6_IN S7_IN 1.5915502266942658e-14
C27 S6_IN S8_IN 1.5915502266942658e-14
C28 S7_IN S8_IN 1.5915502266942658e-14
*Charge injection blocks (Qc)
X_U66    S1_IN VSS VDD D SW_S1D GND VSS QC_S1_IN
X_U67    S2_IN VSS VDD D SW_S2D GND VSS QC_S2_IN
X_U68    S3_IN VSS VDD D SW_S3D GND VSS QC_S3_IN
X_U69    S4_IN VSS VDD D SW_S4D GND VSS QC_S4_IN
X_U70    S5_IN VSS VDD D SW_S5D GND VSS QC_S5_IN
X_U71    S6_IN VSS VDD D SW_S6D GND VSS QC_S6_IN
X_U72    S7_IN VSS VDD D SW_S7D GND VSS QC_S7_IN
X_U73    S8_IN VSS VDD D SW_S8D GND VSS QC_S8_IN
.ENDS TMUX7348_IN
*$
*These circuits add a series diode that simulates an ESD diode from IN (-) to OUT (+)
*This diode will not cause a failure when IN > OUT but may show a large increase in current consumption 
*$
.SUBCKT ESD_Diode IN OUT
*
.MODEL DCLAMP D(IS=1E-15 IBV=1E-13 ISR = 1E-15)
D1 IN OUT DCLAMP
*
.ENDS
*$
*These circuits add a parallel current source/sink to simulate supply current consumption, based on the table
*
.SUBCKT I_VDD VDD GND
*
EI_VDD NVDD GND TABLE {V(VDD,GND)} = 
+ (0.0,0.0)
+ (8.0,0.00025)
+ (10.8,0.00025)
+ (12.0,0.00025)
+ (15.0,0.00025)
+ (20.0,0.00025)
+ (36.0,0.00025)
+ (44.0,0.00025)
*
GVDD VDD GND VALUE = {(V(NVDD)+1p)}
*
.ENDS
.SUBCKT I_VSS VSS GND
*
EI_VSS NVSS GND TABLE {V(VSS,GND)} = 
+ (-20.0,-0.00015)
+ (-13.5,-0.00015)
+ (-0.1 , -0.00015)
*
GVSS VSS GND VALUE = {(V(NVSS)+1p)}
*
.ENDS






*
*These circuits compare the current state and the input voltage to find the new state
*if the current state is on (1) then we will change states if VIN goes below VIL (1 to 0)
*if the current state is on (0) then we will change states if VIN goes above VIH (0 to 1)
.SUBCKT COMPARATOR_VDD  STATE VIN NEWSTATE GND
EVIH VIH GND TABLE {V(VIN,GND)} = 
+ (0,0)
+ (4.399,0)
+ (4.4,1)
EVIL VIL GND TABLE {V(VIN,GND)} = 
+ (0,0)
+ (4.199,0)
+ (4.2,1)
EOUT NEWSTATE GND VALUE = { IF (V(STATE, GND)>0.63, V(VIH,GND), V(VIL,GND) ) }
.ENDS
*$
.SUBCKT COMPARATOR_EN  STATE VIN NEWSTATE GND
EVIH VIH GND TABLE {V(VIN,GND)} = 
+ (0,0)
+ (1.2990000000000002,0)
+ (1.3,1)
EVIL VIL GND TABLE {V(VIN,GND)} = 
+ (0,0)
+ (0.799,0)
+ (0.8,1)
EOUT NEWSTATE GND VALUE = { IF (V(STATE, GND)>0.63, V(VIH,GND), V(VIL,GND) ) }
.ENDS
*$
.SUBCKT COMPARATOR_A0  STATE VIN NEWSTATE GND
EVIH VIH GND TABLE {V(VIN,GND)} = 
+ (0,0)
+ (1.2990000000000002,0)
+ (1.3,1)
EVIL VIL GND TABLE {V(VIN,GND)} = 
+ (0,0)
+ (0.799,0)
+ (0.8,1)
EOUT NEWSTATE GND VALUE = { IF (V(STATE, GND)>0.63, V(VIH,GND), V(VIL,GND) ) }
.ENDS
*$
.SUBCKT COMPARATOR_A1  STATE VIN NEWSTATE GND
EVIH VIH GND TABLE {V(VIN,GND)} = 
+ (0,0)
+ (1.2990000000000002,0)
+ (1.3,1)
EVIL VIL GND TABLE {V(VIN,GND)} = 
+ (0,0)
+ (0.799,0)
+ (0.8,1)
EOUT NEWSTATE GND VALUE = { IF (V(STATE, GND)>0.63, V(VIH,GND), V(VIL,GND) ) }
.ENDS
*$
.SUBCKT COMPARATOR_A2  STATE VIN NEWSTATE GND
EVIH VIH GND TABLE {V(VIN,GND)} = 
+ (0,0)
+ (1.2990000000000002,0)
+ (1.3,1)
EVIL VIL GND TABLE {V(VIN,GND)} = 
+ (0,0)
+ (0.799,0)
+ (0.8,1)
EOUT NEWSTATE GND VALUE = { IF (V(STATE, GND)>0.63, V(VIH,GND), V(VIL,GND) ) }
.ENDS
*$
*These circuits handle all the logic for the device
*this does NOT handle timing delays or VIH VIL, all signals here are 1/0 logic