* CIP: NDA is required as of 08/29/2019
*****************************************************************************
* TPD2E001
*****************************************************************************
* (C) Copyright 2015 Texas Instruments Incorporated. All rights reserved.                                            
*****************************************************************************
** This model is designed as an aid for customers of Texas Instruments.
** TI and its licensors and suppliers make no warranties, either expressed
** or implied, with respect to this model, including the warranties of 
** merchantability or fitness for a particular purpose.  The model is
** provided solely on an "as is" basis.  The entire risk as to its quality
** and performance is with the customer.
*****************************************************************************
*
** Released by: WEBENCH(R) Design Center, Texas Instruments Inc.
* Part: TPD2E001
* Date: 4/27/2015
* Model Type: Transient
* Simulator: Pspice
* Simulator Version: Pspice 16.2.0.s003
* EVM Order Number: N/A 
* EVM Users Guide: N/A
* Datasheet: SLLS684H, 18 JULY 2014
*
* Model Version: 1.0
*
*****************************************************************************
*
* Updates:
*
* Version 1.0 : New model
*
*****************************************************************************
*Notes 
*.
*****************************************************************************
*$
.SUBCKT TPD2E001 VCC NC IO1 GND IO2
Lpar1 IO1 IO1_L1 0.4848n
Rpar1 IO1_L1 IO1_R1 0.032
Cpar1 IO1 GND_INT 0.0843p
D1 IO1_R1 VCC Dbreak
D2 GND_INT IO1_R1 Dbreak
Lpar2 IO2 IO2_L2 0.636n
Rpar2 IO2_L2 IO2_R2 0.034
Cpar2 IO2 GND_INT 0.1238p
D3 IO2_R2 VCC Dbreak
D4 GND_INT IO2_R2 Dbreak
CINTR IO1 IO2 135f
D5 GND_INT VCC DbreakZ
RPAR GND_INT GND_LPAR 0.048 
LPAR GND_LPAR GND 0.734n
CPAR GND_INT GND 0.1289p
.MODEL Dbreak D(IS=1e-9 TT=10p VJ=0.65 N=1.55 Rs=0.001 CJO=1.5p)
.MODEL DbreakZ D(IS=1e-9 TT=10p VJ=0.65 N=1.55 IBV=10mA BV=10.575)
.ENDS TPD2E001
*$
