* TPS1H000-Q1
*****************************************************************************
*  (C) Copyright 2018 Texas Instruments Incorporated. All rights reserved.
*****************************************************************************
** This model is designed as an aid for customers of Texas Instruments.
** TI and its licensors and suppliers make no warranties, either expressed
** or implied, with respect to this model, including the warranties of 
** merchantability or fitness for a particular purpose.  The model is
** provided solely on an "as is" basis.  The entire risk as to its quality
** and performance is with the customer
*****************************************************************************
*
** Released by: WEBENCH Design Center, Texas Instruments Inc.
* Part: TPS1H000-Q1
* Date: 09JUL2018
* Model Type: Transient
* Simulator: PSPICE
* Simulator Version: 16.2.0.s003
* EVM Order Number: 
* EVM User's Guide:  
* Datasheet: SLVSEE0A –FEBRUARY 2018–REVISED APRIL 2018
* Model Version: Final 1.00
*
*****************************************************************************
*
* Updates:
*
* Final 1.00
* Release to Web.
*
*****************************************************************************
*
* Model Usage Notes:
*
* A. Features have been modelled
*	1. Switching characteristics
*	2. Programmable current limit with external resistor 
*	3. Short circuit/Over load protection
*	4. Inductive load negative voltage clamp
*	5. Overload and short to ground detection
*	6. Open load/short to battery detection during off state 
*	7. High accurate Current Sense with external resistor
*
* B. Features haven't been modelled
*	1. Temperature dependent characteristics
*   2. Leakage and reverse current characteristics 
*	3. Ground pin is tied to 0V internally hence this model cannot be used in inverting topology
*
*****************************************************************************
*$
.SUBCKT TPS1H000-Q1_TRANS /FAULT CL DEL DIAG_EN GND IN OUT THER_PAD VS  
X_U1_U2_F2    U1_U2_5VDC U1_U2_N16942046 U1_U2_5VDC U1_U2_N16941762
+  CL_CS_FAULT1_U1_U2_F2 
X_U1_U2_U72         U1_U2_N17897693 U1_U2_N17897687 one_shot PARAMS:  T=10000  
X_U1_U2_U68         U1_U2_N17842323 U1_U2_N17843653 U1_U2_CL_RM_HOLD
+  AND2_BASIC_GEN PARAMS: VDD=1 VSS=0 VTHRESH=500E-3
E_U1_U2_E1         U1_U2_N17165193 0 U1_I_SENSE 0 100
X_U1_U2_U61         U1_U2_N17829676 U1_U2_N17777454 one_shot PARAMS:  T=10000  
I_U1_U2_I1         0 U1_U2_N17188271 DC 2.777uAdc  
X_U1_U2_U3         U1_U2_N17044307 U1_U2_N17072015 DELAY PARAMS:  RINP=1K
+  DELAY=40m
X_U1_U2_U49         U1_U2_N17954102 U1_U2_N17958352 U1_U2_N17694689
+  AND2_BASIC_GEN PARAMS: VDD=1 VSS=0 VTHRESH=500E-3
X_U1_U2_U16         U1_U2_N17690654 U1_U2_N17631842 U1_U2_N17682668 N17683854
+  srlatchrhp_basic_gen PARAMS: VDD=1 VSS=0 VTHRESH=0.5
R_U1_U2_Rsource         U1_U2_N16978207 U1_U2_VCL_REF  1u TC=0,0 
E_U1_U2_ABM3         U1_U2_N17688943 0 VALUE { IF(V(U1_U2_N16914532)>0.5,1,0)  
+   }
X_U1_U2_U73         U1_U2_N17897617 U1_U2_N17897689 INV_BASIC_GEN PARAMS: VDD=1
+  VSS=0 VTHRESH=500E-3
X_U1_U2_U81         U1_U2_N18020554 N18021079 one_shot PARAMS:  T=200000  
X_U1_U2_U32         U1_U2_CS_SETTLE U1_U2_N17407601 INV_BASIC_GEN PARAMS: VDD=1
+  VSS=0 VTHRESH=500E-3
X_U1_U2_U22         U1_U2_N17188271 U1_U2_N17188237 d_d PARAMS:
V_U1_U2_V12         U1_U2_N17162102 0 0.5
R_U1_U2_R13         U1_U2_N17942688 U1_U2_N17942686  21k TC=0,0 
X_U1_U2_U23         U1_DIAG_EN_OK U1_U2_N16914600 INV_BASIC_GEN PARAMS: VDD=1
+  VSS=0 VTHRESH=500E-3
X_U1_U2_U77         U1_U2_RE_TIME U1_U2_N17897693 INV_BASIC_GEN PARAMS: VDD=1
+  VSS=0 VTHRESH=500E-3
X_U1_U2_U74         U1_U2_N17897689 U1_U2_N17897698 U1_U2_CL_RM_RE
+  AND2_BASIC_GEN PARAMS: VDD=1 VSS=0 VTHRESH=500E-3
X_U1_U2_U83         U1_U2_OL_DEC_H U1_U2_N18020554 INV_BASIC_GEN PARAMS: VDD=1
+  VSS=0 VTHRESH=500E-3
V_U1_U2_V13         U1_U2_5VDC 0 5Vdc
C_U1_U2_C15         0 U1_U2_N17942686  0.584u  TC=0,0 
X_U1_U2_U33         U1_U2_N17349504 U1_U2_N17348182 d_d PARAMS:
X_U1_U2_U40         U1_U2_N17942686 U1_U2_N17942688 d_d PARAMS:
X_U1_U2_U43         U1_U2_CS_SETTLE U1_U2_CS_SETTLE U1_U2_N17662713
+  AND2_BASIC_GEN PARAMS: VDD=1 VSS=0 VTHRESH=500E-3
X_U1_U2_U36         U1_U2_N17264348 U1_U2_N17264939 INV_BASIC_GEN PARAMS: VDD=1
+  VSS=0 VTHRESH=500E-3
X_U1_U2_U25         0 U1_U2_N17188271 d_d PARAMS:
R_U1_U2_R7         U1_U2_N16913514 U1_U2_N16914532  738.8 TC=0,0 
X_U1_U2_U76         U1_U2_N17949731 U1_U2_N17949744 one_shot PARAMS:  T=350000 
+  
R_U1_U2_R8         U1_CH1_VCL 0  1k TC=0,0 
X_U1_U2_S2    U1_U2_N17355357 0 DEL 0 CL_CS_FAULT1_U1_U2_S2 
X_U1_U2_U35         U1_U2_OS U1_U2_N17355357 one_shot PARAMS:  T=40000  
E_U1_U2_ABM11         U1_U2_LATCH_MODE 0 VALUE { IF(V(DEL)<2.7 & V(DEL)>0,1,0) 
+    }
X_U1_U2_U64         U1_U2_N17407599 U1_U2_CL_RM_HOLD U1_U2_CL_RM_RE
+  U1_U2_N17409855 OR3_BASIC_GEN PARAMS: VDD=1 VSS=0 VTHRESH=500E-3
C_U1_U2_C8         0 U1_U2_N17072257  1p  TC=0,0 
E_U1_U2_ABM9         U1_U2_N16991030 0 VALUE { IF(V(DEL)<2.7,1,0)    }
X_U1_U2_U78         U1_IN_OK U1_U2_N17949731 INV_BASIC_GEN PARAMS: VDD=1 VSS=0
+  VTHRESH=500E-3
X_U1_U2_U34         U1_U2_OL_DEC_L U1_U2_OL_DEC_H 0 U1_U2_OL_DEC OR3_BASIC_GEN
+  PARAMS: VDD=1 VSS=0 VTHRESH=500E-3
X_U1_U2_U42         U1_U2_N17942686 U1_U2_N17942686 U1_U2_N17937196
+  AND2_BASIC_GEN PARAMS: VDD=1 VSS=0 VTHRESH=500E-3
X_U1_U2_U79         U1_U2_N17949744 U1_U2_N17958352 INV_BASIC_GEN PARAMS: VDD=1
+  VSS=0 VTHRESH=500E-3
X_U1_U2_U2         DEL U1_U2_N17277595 U1_U2_N17278279 COMP_BASIC_GEN PARAMS:
+  VDD=1 VSS=0 VTHRESH=0.5
C_U1_U2_C10         0 U1_U2_CL_CTRL  1p  TC=0,0 
G_U1_U2_G1         0 U1_CH1_VCL U1_U2_N16941875 0 1
R_U1_U2_R3         U1_IN_OK U1_U2_N16913992  216 TC=0,0 
I_U1_U2_I2         0 DEL DC 4.2u  
X_U1_U2_U29         U1_U2_N17072257 U1_U2_N17083862 one_shot PARAMS: 
+  T=680000000  
X_U1_U2_U62         U1_U2_LATCH_MODE N17785997 INV_BASIC_GEN PARAMS: VDD=1
+  VSS=0 VTHRESH=500E-3
X_U1_U2_S5    U1_U2_RE_TIME 0 U1_GATE OUT CL_CS_FAULT1_U1_U2_S5 
R_U1_U2_R17         U1_U2_N17120507 U1_U2_CL_CTRL  1 TC=0,0 
X_U1_U2_U28         U1_U2_CS_SETTLE U1_U2_N17036197 INV_BASIC_GEN PARAMS: VDD=1
+  VSS=0 VTHRESH=500E-3
X_U1_U2_U80         U1_IN_OK U1_U2_N17998473 one_shot PARAMS:  T=10000  
X_U1_U2_S3    U1_U2_N17621878 0 /FAULT 0 CL_CS_FAULT1_U1_U2_S3 
C_U1_U2_C2         0 U1_U2_N16913992  1u IC=0 TC=0,0 
X_U1_U2_U39         U1_U2_N16913514 U1_U2_N176919040 INV_BASIC_GEN PARAMS:
+  VDD=1 VSS=0 VTHRESH=500E-3
X_U1_U2_U26         U1_U2_N16914600 U1_U2_OL_SB U1_U2_CL_CTRL U1_U2_N17621499
+  OR3_BASIC_GEN PARAMS: VDD=1 VSS=0 VTHRESH=500E-3
X_U1_U2_U67         U1_U2_N17840602 U1_U2_N17842323 INV_BASIC_GEN PARAMS: VDD=1
+  VSS=0 VTHRESH=500E-3
E_U1_U2_ABM5         U1_U2_CS_SETTLE 0 VALUE { IF(V(U1_U2_N16913992)>0.5,1,0)  
+   }
C_U1_U2_C14         0 U1_U2_N18046657  461n IC=0 TC=0,0 
R_U1_U2_R12         U1_U2_OL_DEC_H U1_U2_N18046657  1k TC=0,0 
X_U1_U2_U10         U1_U2_N17111720 U1_U2_N17409855 U1_U2_N17120507 N17767559
+  srlatchrhp_basic_gen PARAMS: VDD=1 VSS=0 VTHRESH=0.5
X_U1_U2_H2    U1_U2_N16941916 0 U1_U2_N16941951 0 CL_CS_FAULT1_U1_U2_H2 
X_U1_U2_U82         U1_U2_N17998473 U1_U2_N17998441 INV_BASIC_GEN PARAMS: VDD=1
+  VSS=0 VTHRESH=500E-3
X_U1_U2_U18         U1_U2_CS_SETTLE U1_U2_N17942688 INV_BASIC_GEN PARAMS: VDD=1
+  VSS=0 VTHRESH=500E-3
X_U1_U2_U65         U1_U2_N17837515 U1_U2_N17840602 one_shot PARAMS:  T=30000  
X_U1_U2_U52         U1_U2_N17710433 U1_U2_N17708806 one_shot PARAMS:  T=10000  
X_U1_U2_U17         U1_U2_CL_FLAG1 U1_U2_N16938573 INV_BASIC_GEN PARAMS: VDD=1
+  VSS=0 VTHRESH=500E-3
X_U1_U2_U45         U1_U2_N16914532 U1_U2_N16913514 d_d PARAMS:
X_U1_U2_U12         U1_IN_OK U1_U2_N16913567 INV_BASIC_GEN PARAMS: VDD=1 VSS=0
+  VTHRESH=500E-3
V_U1_U2_V2         U1_U2_N17188237 0 1
X_U1_U2_U56         U1_U2_N18000320 U1_U2_N17998441 U1_U2_N17708774
+  AND2_BASIC_GEN PARAMS: VDD=1 VSS=0 VTHRESH=500E-3
E_U1_U2_ABM10         U1_U2_RETRY 0 VALUE { IF(V(DEL)>2.7,1,0)    }
X_U1_U2_U53         U1_U2_OL_DEC_L U1_U2_N177088130 INV_BASIC_GEN PARAMS: VDD=1
+  VSS=0 VTHRESH=500E-3
X_U1_U2_U66         U1_IN_OK U1_U2_N17837515 INV_BASIC_GEN PARAMS: VDD=1 VSS=0
+  VTHRESH=500E-3
E_U1_U2_ABM6         U1_U2_N17710433 0 VALUE { IF(V(U1_U2_N17653882)>0.5,1,0)  
+   }
X_U1_U2_U6         U1_U2_N17330740 U1_U2_N17331109 DELAY PARAMS:  RINP=1K
+  DELAY=400u
X_U1_U2_U48         U1_U2_N176919040 U1_U2_N17954102 one_shot PARAMS:  T=10000 
+  
E_U1_U2_ABM13         U1_U2_N16941988 0 VALUE { LIMIT(V(U1_U2_N16941951), 0,
+  30u)    }
X_U1_U2_U11         U1_U2_N16914743 U1_U2_N16913567 U1_U2_OL_DEC_L
+  AND2_BASIC_GEN PARAMS: VDD=1 VSS=0 VTHRESH=500E-3
X_U1_U2_S1    U1_U2_CL_FLAG1 0 U1_U2_N17188271 0 CL_CS_FAULT1_U1_U2_S1 
X_U1_U2_U54         U1_U2_N177088130 U1_U2_N18000320 one_shot PARAMS:  T=10000 
+  
C_U1_U2_C12         0 U1_U2_N17653882  0.6u IC=0 TC=0,0 
X_U1_U2_U63         U1_U2_N17777454 U1_U2_HOLD_MODE U1_U2_N17843653
+  AND2_BASIC_GEN PARAMS: VDD=1 VSS=0 VTHRESH=500E-3
C_U1_U2_C11         0 U1_U2_N17621878  1n IC=0 TC=0,0 
X_U1_U2_U60         U1_U2_CL_FLAG1 U1_U2_N17829676 INV_BASIC_GEN PARAMS: VDD=1
+  VSS=0 VTHRESH=500E-3
X_U1_U2_S4    U1_U2_N17030188 0 U1_GATE OUT CL_CS_FAULT1_U1_U2_S4 
X_U1_U2_F3    U1_U2_N16942046 U1_U2_N16941586 U1_U2_5VDC U1_U2_N16941916
+  CL_CS_FAULT1_U1_U2_F3 
R_U1_U2_R11         U1_U2_OL_DEC_L U1_U2_N17653882  738.8 TC=0,0 
X_U1_U2_U24         U1_U2_CL_FLAG1 U1_U2_RETRY U1_U2_N17044307 AND2_BASIC_GEN
+  PARAMS: VDD=1 VSS=0 VTHRESH=500E-3
E_U1_U2_ABM14         U1_U2_HOLD_MODE 0 VALUE { IF(V(DEL) < 0.1,1,0)    }
X_U1_U2_U27         U1_U2_N17275198 U1_U2_N17264939 U1_U2_N17330740
+  AND2_BASIC_GEN PARAMS: VDD=1 VSS=0 VTHRESH=500E-3
C_U1_U2_C1         U1_U2_N17188271 0  0.92n  TC=0,0 
X_U1_U2_U55         U1_U2_N17708806 U1_U2_N17708780 U1_U2_N17708782 N17708786
+  srlatchrhp_basic_gen PARAMS: VDD=1 VSS=0 VTHRESH=0.5
R_U1_U2_R14         U1_U2_N17036197 U1_U2_N17036870  1 TC=0,0 
V_U1_U2_V11         U1_U2_VOL_OFF 0 2.6
C_U1_U2_C9         0 U1_U2_N17407599  0.584u IC=0 TC=0,0 
X_U1_U2_U47         U1_U2_N17688943 U1_U2_N17690654 one_shot PARAMS:  T=10000  
X_U1_U2_U75         U1_U2_N18046657 U1_U2_OL_DEC_H U1_U2_OL_DEC_H
+  U1_U2_N16913514 OR3_BASIC_GEN PARAMS: VDD=1 VSS=0 VTHRESH=500E-3
R_U1_U2_R19         DEL U1_U2_N17349504  1k TC=0,0 
R_U1_U2_R10         U1_U2_N17407601 U1_U2_N17407599  21k TC=0,0 
X_U1_U2_U5         U1_VCL_TH U1_CH1_VCL U1_U2_CL_FLAG1 COMP_BASIC_GEN PARAMS:
+  VDD=1 VSS=0 VTHRESH=0.5
C_U1_U2_C6         0 U1_U2_N16914532  0.6u IC=0 TC=0,0 
X_U1_U2_U7         U1_U2_VOL_OFF U1_U2_N16913574 U1_U2_N16914743 COMP_BASIC_GEN
+  PARAMS: VDD=1 VSS=0 VTHRESH=0.5
V_U1_U2_V3         U1_U2_N17277595 0 1.45
X_U1_U2_U30         U1_U2_N17083862 U1_U2_RE_TIME BUF_BASIC_GEN PARAMS: VDD=1
+  VSS=0 VTHRESH=0.5
R_U1_U2_R9         U1_U2_N16941954 0  18k TC=0,0 
X_U1_U2_U57         U1_U2_N17662713 U1_U2_N17708887 one_shot PARAMS:  T=10000  
X_U1_U2_U59         U1_U2_N17682668 U1_U2_N17708782 U1_U2_N17708782 U1_U2_OL_SB
+  OR3_BASIC_GEN PARAMS: VDD=1 VSS=0 VTHRESH=500E-3
X_U1_U2_U1         U1_U2_N17188271 U1_U2_N17188296 U1_U2_N17188300
+  COMP_BASIC_GEN PARAMS: VDD=1 VSS=0 VTHRESH=0.5
X_U1_U2_U38         U1_U2_N17407599 U1_U2_N17407601 d_d PARAMS:
X_U1_U2_U13         U1_U2_N17273922 U1_U2_OS DELAY PARAMS:  RINP=1K DELAY=139u
X_U1_U2_U19         U1_U2_CL_FLAG1 U1_U2_N16991030 U1_U2_N17273922
+  AND2_BASIC_GEN PARAMS: VDD=1 VSS=0 VTHRESH=500E-3
X_U1_U2_U69         U1_U2_N17897589 U1_U2_N17897617 one_shot PARAMS:  T=30000  
X_U1_U2_U58         U1_U2_N17708887 U1_U2_N17708774 U1_U2_N17708774
+  U1_U2_N17708780 OR3_BASIC_GEN PARAMS: VDD=1 VSS=0 VTHRESH=500E-3
X_U1_U2_U51         U1_U2_N17694269 U1_U2_N17694689 U1_U2_N17694689
+  U1_U2_N17631842 OR3_BASIC_GEN PARAMS: VDD=1 VSS=0 VTHRESH=500E-3
X_U1_U2_H1    U1_U2_N16941762 0 U1_U2_N16941797 0 CL_CS_FAULT1_U1_U2_H1 
X_U1_U2_U20         U1_U2_CS_SETTLE U1_U2_N17331109 U1_U2_N17230526
+  AND2_BASIC_GEN PARAMS: VDD=1 VSS=0 VTHRESH=500E-3
V_U1_U2_V1         U1_U2_N17188296 0 0.5
C_U1_U2_C7         0 U1_U2_N17036870  1n  TC=0,0 
X_U1_U2_U37         U1_U2_N17273922 U1_U2_N17278279 U1_U2_N17275198
+  AND2_BASIC_GEN PARAMS: VDD=1 VSS=0 VTHRESH=500E-3
X_U1_U2_U44         U1_U2_N17653882 U1_U2_OL_DEC_L d_d PARAMS:
X_U1_U2_U50         U1_U2_N17937196 U1_U2_N17694269 one_shot PARAMS:  T=10000  
X_U1_U2_F1    U1_U2_N16978207 CL U1_U2_N16941586 0 CL_CS_FAULT1_U1_U2_F1 
X_U1_U2_U70         U1_IN_OK U1_U2_N17897589 INV_BASIC_GEN PARAMS: VDD=1 VSS=0
+  VTHRESH=500E-3
G_U1_U2_G2         0 U1_U2_N16941954 U1_U2_N16941988 0 1
R_U1_U2_R15         U1_U2_N17072015 U1_U2_N17072257  1 TC=0,0 
X_U1_U2_U8         U1_U2_N16938573 U1_U2_N17188300 N16938556 U1_U2_CL_FLSR
+  srlatchrhp_basic_gen PARAMS: VDD=1 VSS=0 VTHRESH=0.5
X_U1_U2_U31         U1_U2_CS_SETTLE U1_U2_CL_FLSR U1_U2_N17111720
+  AND2_BASIC_GEN PARAMS: VDD=1 VSS=0 VTHRESH=500E-3
X_U1_U2_U71         U1_U2_N17897687 U1_U2_RETRY U1_U2_N17897698 AND2_BASIC_GEN
+  PARAMS: VDD=1 VSS=0 VTHRESH=500E-3
X_U1_U2_U14         U1_IN_OK U1_U2_N17159971 U1_U2_OL_DEC_H AND2_BASIC_GEN
+  PARAMS: VDD=1 VSS=0 VTHRESH=500E-3
E_U1_U2_ABM12         U1_U2_N16941875 0 VALUE { LIMIT(V(U1_U2_N16941797), 0,
+  2.333m)    }
V_U1_U2_V10         U1_U2_VCL_REF 0 0.8Vdc
E_U1_U2_ABM4         U1_U2_N16913574 0 VALUE { V(VS)  
+ -V(OUT)    }
V_U1_U2_V4         U1_U2_N17348182 0 2
X_U1_U2_U15         U1_U2_N17162102 U1_U2_N17165193 U1_U2_N17159971
+  COMP_BASIC_GEN PARAMS: VDD=1 VSS=0 VTHRESH=0.5
R_U1_U2_R4         U1_U2_N17621499 U1_U2_N17621878  10 TC=0,0 
X_U1_U2_U4         /FAULT U1_U2_N17264348 DELAY PARAMS:  RINP=1K DELAY=7u
X_U1_U2_U9         U1_U2_N17230526 U1_U2_N17036870 U1_U2_N17030188 N17039302
+  srlatchrhp_basic_gen PARAMS: VDD=1 VSS=0 VTHRESH=0.5
R_U1_U3_R3         U1_U3_N17205516 U1_U3_N17205493  500 TC=0,0 
E_U1_U3_ABM2         U1_U3_N17205516 0 VALUE { IF(V(U1_U3_N17454347)>0.5 &
+  V(U1_GATE)<2.02,1.2u,0)    }
V_U1_U3_V16         U1_U3_N17288546 VS 4.5
X_U1_U3_U21         U1_U3_N17205457 OUT d_d PARAMS:
X_U1_U3_U23         U1_U3_N17469630 U1_GATE d_d PARAMS:
G_U1_U3_G2         U1_U3_N17205460 U1_GATE U1_U3_N17205493 0 10
C_U1_U3_C2         0 U1_U3_N17205424  1u  TC=0,0 
E_U1_U3_ABM8         U1_U3_N17205777 0 VALUE { IF(V(U1_VCL_TH)
+  >1.5*V(U1_CH1_VCL),1,0)    }
X_U1_U3_U16         U1_U3_N17461141 U1_SWEN U1_U3_N17457749 AND2_BASIC_GEN
+  PARAMS: VDD=1 VSS=0 VTHRESH=500E-3
X_U1_U3_U11         U1_SWEN U1_U3_N17454347 one_shot PARAMS:  T=43000  
V_U1_U3_V17         U1_U3_N17469630 0 0
X_U1_U3_U20         U1_GATE U1_U3_N17288546 d_d PARAMS:
X_U1_U3_U6         U1_U3_N17205777 U1_U3_FASTTRIP one_shot PARAMS:  T=300  
C_U1_U3_C3         0 U1_U3_N17205493  1.3n  TC=0,0 
X_U1_U3_H1    VS U1_U3_N17359870 U1_I_SENSE 0 DRIVER1_U1_U3_H1 
M_U1_U3_M1         U1_U3_N17337680 U1_GATE OUT OUT NMOS01           
E_U1_U3_E2         U1_U3_FT_GAIN 0 TABLE { V(U1_I_SENSE, 0) } 
+ ( (0,0) (0.1,20) (0.5, 15) (1,6) (1.6,5) )
V_U1_U3_V20         U1_U3_N17205460 0 5
X_U1_U3_U15         U1_U3_N17206064 U1_U3_N17205597 one_shot PARAMS:  T=49000  
R_U1_U3_R9         U1_U3_N17337680 U1_U3_N17286563  1000m TC=0,0 
X_U1_U3_F1    U1_U3_N17359870 U1_U3_N17286563 VS U1_VCL_TH DRIVER1_U1_U3_F1 
C_U1_U3_Cgs         U1_GATE 0  380p IC=0 TC=0,0 
E_U1_U3_E1         U1_U3_V_GAIN 0 TABLE { V(U1_I_SENSE, 0) } 
+ ( (0.1,16m) (0.5,50m) (0.7,12m) (1.6,8m) )
G_U1_U3_ABM2I10         U1_GATE 0 VALUE { IF(V(U1_U3_N17205597)-V(0)>0.5,
+  10u,0)    }
R_U1_U3_R10         U1_VCL_TH 0  1k TC=0,0 
E_U1_U3_ABM1         U1_U3_N17205441 0 VALUE { IF(V(U1_U3_N17457749)>0.5,16u,0)
+     }
R_U1_U3_R2         U1_U3_N17205441 U1_U3_N17205424  1 TC=0,0 
G_U1_U3_ABM2I5         U1_GATE 0 VALUE {
+  IF(V(U1_U3_FASTTRIP)-V(0)>0.5,V(U1_U3_FT_GAIN)*0.25m,0)    }
X_U1_U3_U25         U1_SWEN U1_U3_N17206064 INV_BASIC_GEN PARAMS: VDD=1 VSS=0
+  VTHRESH=500E-3
G_U1_U3_G1         U1_U3_N17205436 U1_GATE U1_U3_N17205424 0 10
G_U1_U3_ABM2I4         U1_GATE 0 VALUE {
+  LIMIT(((V(U1_VCL_TH)-V(U1_CH1_VCL))*50m),0,1m)    }
X_U1_U3_U22         OUT U1_U3_N17337680 d_d PARAMS:
V_U1_U3_V14         VS U1_U3_N17205457 55
R_U1_U3_R8         U1_GATE 0  840k TC=0,0 
G_U1_U3_ABM2I1         U1_GATE 0 VALUE { IF(V(U1_U3_N17462353)-V(0)>0.5,135u,0)
+     }
V_U1_U3_V19         U1_U3_N17205436 0 5
X_U1_U3_U17         U1_U3_N17462384 U1_U3_N17206064 U1_U3_N17462353
+  AND2_BASIC_GEN PARAMS: VDD=1 VSS=0 VTHRESH=500E-3
X_U1_U3_U26         U1_U3_N17454347 U1_U3_N17461141 INV_BASIC_GEN PARAMS: VDD=1
+  VSS=0 VTHRESH=500E-3
X_U1_U3_U27         U1_U3_N17205597 U1_U3_N17462384 INV_BASIC_GEN PARAMS: VDD=1
+  VSS=0 VTHRESH=500E-3
X_U1_U1_U3         U1_U1_VS_OK U1_IN_OK U1_U1_N16780788 AND2_BASIC_GEN PARAMS:
+  VDD=1 VSS=0 VTHRESH=500E-3
R_U1_U1_R1         IN 0  175k TC=0,0 
R_U1_U1_R5         U1_U1_N16780788 U1_SWEN  10 TC=0,0 
R_U1_U1_R3         U1_U1_N19376 U1_U1_N29577  1 TC=0,0 
C_U1_U1_C2         0 U1_U1_N29577  1n  TC=0,0 
C_U1_U1_C3         U1_SWEN 0  1n  TC=0,0 
X_U1_U1_U1         VS U1_U1_VUVR U1_U1_N167782823 U1_U1_VS_OK COMPHYS_BASIC_GEN
+  PARAMS: VDD=1 VSS=0 VTHRESH=0.5
E_U1_U1_ABM2         U1_DIAG_EN_OK 0 VALUE { IF(V(U1_U1_N29577)>0.5,1,0)    }
V_U1_U1_Vuv_hys         U1_U1_N167782823 0 0.5
V_U1_U1_V2         U1_U1_VUVR 0 3.7
R_U1_U1_R4         DIAG_EN 0  275k TC=0,0 
X_U1_U1_U2         IN U1_U1_N16778379 U1_U1_N167783383 U1_IN_OK
+  COMPHYS_BASIC_GEN PARAMS: VDD=1 VSS=0 VTHRESH=0.5
V_U1_U1_V3         U1_U1_N167783383 0 250m
X_U1_U1_U4         DIAG_EN U1_U1_N19306 U1_U1_N192183 U1_U1_N19376
+  COMPHYS_BASIC_GEN PARAMS: VDD=1 VSS=0 VTHRESH=0.5
V_U1_U1_V4         U1_U1_N16778379 0 2
V_U1_U1_V5         U1_U1_N192183 0 250m
V_U1_U1_V6         U1_U1_N19306 0 2
R_R2         GND 0  1m TC=0,0 
R_R4         THER_PAD 0  1m TC=0,0 
.ENDS TPS1H000-Q1_TRANS
*$
.subckt CL_CS_FAULT1_U1_U2_F2 1 2 3 4  
F_U1_U2_F2         3 4 VF_U1_U2_F2 1
VF_U1_U2_F2         1 2 0V
.ends CL_CS_FAULT1_U1_U2_F2
*$
.subckt CL_CS_FAULT1_U1_U2_S2 1 2 3 4  
S_U1_U2_S2         3 4 1 2 _U1_U2_S2
RS_U1_U2_S2         1 2 1G
.MODEL         _U1_U2_S2 VSWITCH Roff=1E9 Ron=10 Voff=0 Von=1
.ends CL_CS_FAULT1_U1_U2_S2
*$
.subckt CL_CS_FAULT1_U1_U2_S5 1 2 3 4  
S_U1_U2_S5         3 4 1 2 _U1_U2_S5
RS_U1_U2_S5         1 2 1G
.MODEL         _U1_U2_S5 VSWITCH Roff=10e9 Ron=10 Voff=0 Von=1
.ends CL_CS_FAULT1_U1_U2_S5
*$
.subckt CL_CS_FAULT1_U1_U2_S3 1 2 3 4  
S_U1_U2_S3         3 4 1 2 _U1_U2_S3
RS_U1_U2_S3         1 2 1G
.MODEL         _U1_U2_S3 VSWITCH Roff=10e6 Ron=10 Voff=0.49 Von=0.5
.ends CL_CS_FAULT1_U1_U2_S3
*$
.subckt CL_CS_FAULT1_U1_U2_H2 1 2 3 4  
H_U1_U2_H2         3 4 VH_U1_U2_H2 1
VH_U1_U2_H2         1 2 0V
.ends CL_CS_FAULT1_U1_U2_H2
*$
.subckt CL_CS_FAULT1_U1_U2_S1 1 2 3 4  
S_U1_U2_S1         3 4 1 2 _U1_U2_S1
RS_U1_U2_S1         1 2 1G
.MODEL         _U1_U2_S1 VSWITCH Roff=1E9 Ron=1 Voff=1 Von=0
.ends CL_CS_FAULT1_U1_U2_S1
*$
.subckt CL_CS_FAULT1_U1_U2_S4 1 2 3 4  
S_U1_U2_S4         3 4 1 2 _U1_U2_S4
RS_U1_U2_S4         1 2 1G
.MODEL         _U1_U2_S4 VSWITCH Roff=10e9 Ron=10 Voff=0 Von=1
.ends CL_CS_FAULT1_U1_U2_S4
*$
.subckt CL_CS_FAULT1_U1_U2_F3 1 2 3 4  
F_U1_U2_F3         3 4 VF_U1_U2_F3 7.5m
VF_U1_U2_F3         1 2 0V
.ends CL_CS_FAULT1_U1_U2_F3
*$
.subckt CL_CS_FAULT1_U1_U2_H1 1 2 3 4  
H_U1_U2_H1         3 4 VH_U1_U2_H1 1
VH_U1_U2_H1         1 2 0V
.ends CL_CS_FAULT1_U1_U2_H1
*$
.subckt CL_CS_FAULT1_U1_U2_F1 1 2 3 4  
F_U1_U2_F1         3 4 VF_U1_U2_F1 1
VF_U1_U2_F1         1 2 0V
.ends CL_CS_FAULT1_U1_U2_F1
*$
.subckt DRIVER1_U1_U3_H1 1 2 3 4  
H_U1_U3_H1         3 4 VH_U1_U3_H1 1
VH_U1_U3_H1         1 2 0V
.ends DRIVER1_U1_U3_H1
*$
.subckt DRIVER1_U1_U3_F1 1 2 3 4  
F_U1_U3_F1         3 4 VF_U1_U3_F1 {1/600}
VF_U1_U3_F1         1 2 0V
.ends DRIVER1_U1_U3_F1
*$
.SUBCKT ONE_SHOT IN OUT
+ PARAMs:  T=100
S_S1         MEAS 0 RESET2 0 S1
E_ABM1         CH 0 VALUE { if( V(IN)>0.5 | V(OUT)>0.5,1,0)    }
R_R2         RESET2 RESET  0.1  
E_ABM3         OUT 0 VALUE { if( V(MEAS)<0.5 & V(CH)>0.5,1,0)    }
R_R1         MEAS CH  {T} 
C_C2         0 RESET2  1.4427n  
C_C1         0 MEAS  1.4427n  
E_ABM2         RESET 0 VALUE { if(V(CH)<0.5,1,0)    }
.MODEL         S1 VSWITCH Roff=1e9 Ron=1.0 Voff=0.25V Von=0.75V
.ENDS ONE_SHOT
*$
.SUBCKT AND2_BASIC_GEN A B Y PARAMS: VDD=1 VSS=0 VTHRESH=0.5 
E_ABMGATE    YINT 0 VALUE {{IF(V(A) > {VTHRESH}  &  
+ V(B) > {VTHRESH},{VDD},{VSS})}}
RINT YINT Y 1
CINT Y 0 1n
.ENDS AND2_BASIC_GEN
*$
.SUBCKT OR2_BASIC_GEN A B Y PARAMS: VDD=1 VSS=0 VTHRESH=0.5 
E_ABMGATE    YINT 0 VALUE {{IF(V(A) > {VTHRESH}  |  
+ V(B) > {VTHRESH},{VDD},{VSS})}}
RINT YINT Y 1
CINT Y 0 1n
.ENDS OR2_BASIC_GEN
*$
.SUBCKT OR3_BASIC_GEN A B C Y PARAMS: VDD=1 VSS=0 VTHRESH=0.5 
E_ABMGATE    YINT 0 VALUE {{IF(V(A) > {VTHRESH}  |  
+ V(B) > {VTHRESH} |
+ V(C) > {VTHRESH},{VDD},{VSS})}}
RINT YINT Y 1
CINT Y 0 1n
.ENDS OR3_BASIC_GEN
*$
.SUBCKT INV_BASIC_GEN A  Y PARAMS: VDD=1 VSS=0 VTHRESH=0.5 
E_ABMGATE    YINT 0 VALUE {{IF(V(A) > {VTHRESH} , 
+ {VSS},{VDD})}}
RINT YINT Y 1
CINT Y 0 1n
.ENDS INV_BASIC_GEN
*$
.SUBCKT INV_DELAY_BASIC_GEN A  Y PARAMS: VDD=1 VSS=0 VTHRESH=0.5 DELAY = 10n 
E_ABMGATE1    YINT1 0 VALUE {{IF(V(A) > {VTHRESH} , 
+ {VDD},{VSS})}}
RINT YINT1 YINT2 1
CINT YINT2 0 {DELAY*1.3}
E_ABMGATE2    YINT3 0 VALUE {{IF(V(YINT2) > {VTHRESH} , 
+ {VSS},{VDD})}}
RINT2 YINT3 Y 1
CINT2 Y 0 1n
.ENDS INV_DELAY_BASIC_GEN
*$
.SUBCKT BUF_DELAY_BASIC_GEN A  Y PARAMS: VDD=1 VSS=0 VTHRESH=0.5 DELAY = 10n 
E_ABMGATE1    YINT1 0 VALUE {{IF(V(A) > {VTHRESH} , 
+ {VDD},{VSS})}}
RINT YINT1 YINT2 1
CINT YINT2 0 {DELAY*1.3}
E_ABMGATE2    YINT3 0 VALUE {{IF(V(YINT2) > {VTHRESH} , 
+ {VDD},{VSS})}}
RINT2 YINT3 Y 1
CINT2 Y 0 1n
.ENDS BUF_DELAY_BASIC_GEN
*$
.SUBCKT BUF_BASIC_GEN A  Y PARAMS: VDD=1 VSS=0 VTHRESH=0.5 
E_ABMGATE    YINT 0 VALUE {{IF(V(A) > {VTHRESH} , 
+ {VDD},{VSS})}}
RINT YINT Y 1
CINT Y 0 1n
.ENDS BUF_BASIC_GEN
*$
.SUBCKT COMP_BASIC_GEN INP INM Y PARAMS: VDD=1 VSS=0 VTHRESH=0.5	
E_ABM Yint 0 VALUE {IF (V(INP) > 
+ V(INM), {VDD},{VSS})}
R1 Yint Y 1
C1 Y 0 1n
.ENDS COMP_BASIC_GEN
*$
.SUBCKT COMPHYS_BASIC_GEN INP INM HYS OUT PARAMS: VDD=1 VSS=0 VTHRESH=0.5	
EIN INP1 INM1 INP INM 1 
EHYS INP1 INP2 VALUE { IF( V(1) > {VTHRESH},-V(HYS),0) }
EOUT OUT 0 VALUE { IF( V(INP2)>V(INM1), {VDD} ,{VSS}) }
R1 OUT 1 1
C1 1 0 5n
RINP1 INP1 0 1K
.ENDS COMPHYS_BASIC_GEN
*$
.MODEL NMOS01 NMOS (VTO = 2.02 KP = 156250 LAMBDA  = 0.001)
*$
**Reset has higher priority in this latch
.SUBCKT SRLATCHRHP_BASIC_GEN S R Q QB PARAMS: VDD=1 VSS=0 VTHRESH=0.5 
GQ 0 Qint VALUE = {IF(V(R) > {VTHRESH},-5,IF(V(S)>{VTHRESH},5, 0))}
CQint Qint 0 10n
RQint Qint 0 1000MEG
D_D10 Qint MY5 D_D1
V1 MY5 0 {VDD}
D_D11 MYVSS Qint D_D1
V2 MYVSS 0 {VSS} 
EQ Qqq 0 Qint 0 1
X3 Qqq Qqqd1 BUF_BASIC_GEN PARAMS: VDD={VDD} VSS={VSS} VTHRESH={VTHRESH}
RQq Qqqd1 Q 1
EQb Qbr 0 VALUE = {IF( V(Q) > {VTHRESH}, {VSS},{VDD})}
RQb Qbr QB 1 
Cdummy1 Q 0 1n 
Cdummy2 QB 0 1n
.IC V(Qint) {VSS}
.MODEL D_D1 D( IS=1e-15 TT=10p Rs=0.05 N=.1 )
.ENDS SRLATCHRHP_BASIC_GEN
*$
*.SUBCKT SRLATCHRHP_BASIC_GEN S R Q QB  PARAMS: VDD=5 VSS=0 VTHRESH=2.5 
*C_C1         Q 0  1n IC=1 
*C_C2         0 QB  1n  
*E_ABM5         N00055 0 VALUE { if(v(R) >{VTHRESH},{VSS},if(v(S)>{VTHRESH},{VDD},
*+  V(Q)))    }
*R_R1         N00055 Q  1  
*E_ABM6         N14322195 0 VALUE { IF(V(Q)>{VTHRESH},{VDD},{VSS})    }
*R_R2         N14322195 QB  1  
*.ENDS SRLATCHRHP_BASIC_GEN
*$
.SUBCKT d_d 1 2
d1 1 2 dd
.MODEL dd d ( is=1e-015 n=0.01 tt=1e-011 )
.ENDS d_d
*$
.SUBCKT DELAY INP OUT PARAMS: RINP = 1k DELAY = 10n
R1 INP 101 {RINP}
C1 101 102 { 1.4427 * DELAY / RINP }
E1 102 0 OUT 0 0.5
E2 OUT 0 VALUE {IF(V(101) > 0.5, 1, 0)}
.ENDS DELAY
*$
.SUBCKT NOR2_BASIC_GEN A B Y PARAMS: VDD=1 VSS=0 VTHRESH=0.5 
E_ABMGATE    YINT 0 VALUE {{IF(V(A) > {VTHRESH}  |  
+ V(B) > {VTHRESH},{VSS},{VDD})}}
RINT YINT Y 1
CINT Y 0 1n
.ENDS NOR2_BASIC_GEN
*$
