*$
* TPS2H160A-Q1
*****************************************************************************
* (C) Copyright 2015 Texas Instruments Incorporated. All rights reserved.
*****************************************************************************
** This model is designed as an aid for customers of Texas Instruments.
** TI and its licensors and suppliers make no warranties, either expressed
** or implied, with respect to this model, including the warranties of 
** merchantability or fitness for a particular purpose.  The model is
** provided solely on an "as is" basis.  The entire risk as to its quality
** and performance is with the customer
*****************************************************************************
*
** Released by: WEBENCH Design Center, Texas Instruments Inc.
* Part: TPS2H160A-Q1
* Date: 15DEC2015
* Model Type: Transient
* Simulator: PSPICE
* Simulator Version: 16.2.0.p001
* EVM Order Number: 
* EVM User's Guide:  
* Datasheet: Preliminary Draft Only Nov 2015
*
* Model Version: Final 1.00
*
*****************************************************************************
*
* Updates:
*
* Final 1.00
* Release to Web.
*
*****************************************************************************
*
* Model Usage Notes:
*
* A. Features have been modelled
*	1. Switching characteristics
*	2. Programmable current limit with external resistor 
*	3. Short circuit/Over load protection
*	4. Inductive load negative voltage clamp
*	5. Overload and short to ground detection
*	6. Open load/short to battery detection during off state 
*
* B. Features haven't been modelled
*	1. Thermal shutdown and Thermal swing
*	2. Temperature dependent characteristics 
*
*****************************************************************************
.SUBCKT TPS2H160A-Q1_TRANS IN1 IN2 STB1 STB2 DIAG_EN CL  
+ VS1 VS2 OUT1_1 OUT1_2 OUT2_1 OUT2_2 THER NC1 NC2 GND
X_U1_U3_U15         U1_U3_N17176588 U1_U3_N17179504 one_shot PARAMS:  T=40000  
C_U1_U3_C2         0 U1_U3_N17060988  1u IC=0 TC=0,0 
V_U1_U3_V16         U1_U3_N169777520 VS1 4.5
G_U1_U3_ABM2I1         U1_U3_GATE 0 VALUE {
+  IF(V(U1_U3_N17157507)-V(0)>0.5,5.4u,0)    }
V_U1_U3_V19         U1_U3_N17061229 0 5
E_U1_U3_ABM1         U1_U3_N17061596 0 VALUE { IF(V(U1_SWEN)>0.5,2.24u,0)    }
X_U1_U3_H1    U1_U3_N16977722 U1_U3_N17214973 U1_I_SENSE 0 DRIVER1_U1_U3_H1 
R_U1_U3_R2         U1_U3_N17061596 U1_U3_N17060988  1 TC=0,0 
R_U1_U3_R8         U1_U3_N16977722 U1_U3_GATE  200k TC=0,0 
X_U1_U3_F1    U1_U3_N17214973 OUT1_1 VS1 U1_VCL_TH DRIVER1_U1_U3_F1 
G_U1_U3_G1         U1_U3_N17061229 U1_U3_GATE U1_U3_N17060988 0 10
D_U1_U3_D5         U1_U3_N17036072 U1_U3_N16977722 DD 
G_U1_U3_ABM2I10         U1_U3_GATE 0 VALUE {
+  IF(V(U1_U3_N17179504)-V(0)>0.5,76u,0)    }
X_U1_U3_U24         U1_U3_N17179504 U1_U3_N17160869 INV_BASIC_GEN PARAMS: VDD=1
+  VSS=0 VTHRESH=500E-3
R_U1_U3_R10         U1_VCL_TH 0  6k TC=0,0 
R_U1_U3_R3         U1_U3_N17165879 U1_U3_N17165869  500 TC=0,0 
X_U1_U3_U6         U1_U3_N16977610 U1_U3_FASTTRIP one_shot PARAMS:  T=500  
E_U1_U3_ABM2         U1_U3_N17165879 0 VALUE { IF(V(U1_U3_N17165901)>0.5 &
+  V(U1_U3_GATE)<1.407,3.9u,0)    }
M_U1_U3_M1         U1_U3_N17155555 U1_U3_GATE U1_U3_N16977722 U1_U3_N16977722
+  NMOS01           
G_U1_U3_G2         U1_U3_N17165823 U1_U3_GATE U1_U3_N17165869 0 15
X_U1_U3_U11         U1_SWEN U1_U3_N17165901 one_shot PARAMS:  T=60000  
D_U1_U3_D4         U1_U3_GATE U1_U3_N169777520 DD 
R_U1_U3_R9         U1_U3_N17155555 VS1  45m TC=0,0 
C_U1_U3_C3         0 U1_U3_N17165869  1n IC=0 TC=0,0 
C_U1_U3_Cgs         U1_U3_GATE U1_U3_N16977722  1700p IC=0 TC=0,0 
G_U1_U3_ABM2I5         U1_U3_GATE 0 VALUE {
+  IF(V(U1_U3_FASTTRIP)-V(0)>0.5,15m,0)    }
V_U1_U3_V20         U1_U3_N17165823 0 5
X_U1_U3_U23         U1_SWEN U1_U3_N17176588 INV_BASIC_GEN PARAMS: VDD=1 VSS=0
+  VTHRESH=500E-3
G_U1_U3_ABM2I4         U1_U3_GATE 0 VALUE {
+  LIMIT((V(U1_VCL_TH)-V(U1_CH1_VCL))*10m,0,100u)    }
X_U1_U3_U14         U1_U3_N17160869 U1_U3_N17157507 one_shot PARAMS:  T=50000  
V_U1_U3_V14         VS1 U1_U3_N17036072 59
E_U1_U3_ABM8         U1_U3_N16977610 0 VALUE { IF(V(U1_VCL_TH)
+  >1.5*V(U1_CH1_VCL),1,0)    }
X_U1_U1_U3         U1_U1_N16778395 U1_IN_OK U1_SWEN AND2_BASIC_GEN PARAMS:
+  VDD=1 VSS=0 VTHRESH=500E-3
R_U1_U1_R1         VS1 0  175k TC=0,0 
X_U1_U1_U1         IN1 U1_U1_VUVR U1_U1_N167782823 U1_U1_N16778395
+  COMPHYS_BASIC_GEN PARAMS: VDD=1 VSS=0 VTHRESH=0.5
V_U1_U1_Vuv_hys         U1_U1_N167782823 0 0.5
V_U1_U1_V2         U1_U1_VUVR 0 3.7
R_U1_U1_R4         DIAG_EN 0  275k TC=0,0 
X_U1_U1_U2         VS1 U1_U1_N16778379 U1_U1_N167783383 U1_IN_OK
+  COMPHYS_BASIC_GEN PARAMS: VDD=1 VSS=0 VTHRESH=0.5
V_U1_U1_V3         U1_U1_N167783383 0 250m
X_U1_U1_U4         DIAG_EN U1_U1_N19306 U1_U1_N192183 U1_DIAG_EN_OK
+  COMPHYS_BASIC_GEN PARAMS: VDD=1 VSS=0 VTHRESH=0.5
V_U1_U1_V4         U1_U1_N16778379 0 2
V_U1_U1_V5         U1_U1_N192183 0 250m
V_U1_U1_V6         U1_U1_N19306 0 2
X_U1_U2_U12         U1_IN_OK U1_U2_N16775663 INV_BASIC_GEN PARAMS: VDD=1 VSS=0
+  VTHRESH=500E-3
E_U1_U2_ABM4         U1_U2_N16775685 0 VALUE { V(VS1)  
+ -V(OUT1_1)    }
R_U1_U2_R9         CH2_VCL 0  6k TC=0,0 
X_U1_U2_U11         U1_U2_N16775341 U1_U2_N16775663 U1_U2_OL_OFF AND2_BASIC_GEN
+  PARAMS: VDD=1 VSS=0 VTHRESH=500E-3
G_U1_U2_G2         0 CH2_VCL U1_U2_N16979671 0 1
X_U1_U2_U8         U1_U2_COMP U1_U2_N16897126 U1_U2_N16775245 N16895537
+  srlatchrhp_basic_gen PARAMS: VDD=1 VSS=0 VTHRESH=0.5
X_U1_U2_U18         U1_U2_N16774147 U1_U2_N16775883 INV_BASIC_GEN PARAMS: VDD=1
+  VSS=0 VTHRESH=500E-3
X_U1_U2_U14         U1_DIAG_EN_OK U1_U2_N16775703 INV_BASIC_GEN PARAMS: VDD=1
+  VSS=0 VTHRESH=500E-3
X_U1_U2_U21         U1_U2_N16775077 U1_U2_OL_OFF d_d 
R_U1_U2_R3         U1_IN_OK U1_U2_N16793618  216 TC=0,0 
X_U1_U2_F2    U1_U2_5VDC U1_U2_N16981340 U1_U2_5VDC U1_U2_N16976252
+  CL_CS_FAULT1_U1_U2_F2 
C_U1_U2_C2         0 U1_U2_N16793618  1u IC=0 TC=0,0 
V_U1_U2_V13         U1_U2_5VDC 0 5Vdc
G_U1_U2_ABMII1         U1_U2_N16774321 U1_U2_CS1 VALUE {
+  IF(V(U1_U2_CS_SETTLE)>0.5,V(U1_U2_N16774523),0)    }
V_U1_U2_V2         U1_U2_N16882378 0 1
X_U1_U2_U16         U1_U2_N16774961 U1_U2_N16775883 U1_U2_PULL_DOWN
+  OR2_BASIC_GEN PARAMS: VDD=1 VSS=0 VTHRESH=500E-3
X_U1_U2_U26         U1_U2_N16775123 U1_U2_OL_OFF_PU U1_U2_N16775245
+  U1_U2_N16775211 OR3_BASIC_GEN PARAMS: VDD=1 VSS=0 VTHRESH=500E-3
E_U1_U2_ABM3         U1_U2_OL_OFF_PU 0 VALUE { IF(V(U1_U2_N16775077)>0.5,1,0)  
+   }
V_U1_U2_V11         U1_U2_VOL_OFF 0 1.8
E_U1_U2_ABM5         U1_U2_CS_SETTLE 0 VALUE { IF(V(U1_U2_N16793618)>0.5,1,0)  
+   }
R_U1_U2_R8         U1_CH1_VCL 0  6k TC=0,0 
X_U1_U2_S1    U1_U2_CL_FLAG1 0 U1_U2_N16882413 0 CL_CS_FAULT1_U1_U2_S1 
E_U1_U2_ABM8         U1_U2_N16774147 0 VALUE { IF(V(U1_U2_N16775761)>0.5,1,0)  
+   }
V_U1_U2_V5         U1_U2_N16774321 0 5
X_U1_U2_F1    U1_U2_N16978583 CL U1_U2_N16978579 0 CL_CS_FAULT1_U1_U2_F1 
G_U1_U2_G1         0 U1_CH1_VCL U1_U2_N16976397 0 1
X_U1_U2_S3    U1_U2_N16775211 0 STB1 0 CL_CS_FAULT1_U1_U2_S3 
C_U1_U2_C1         U1_U2_N16882413 0  1n  TC=0,0 
X_U1_U2_U7         U1_U2_VOL_OFF U1_U2_N16775685 U1_U2_N16775341 COMP_BASIC_GEN
+  PARAMS: VDD=1 VSS=0 VTHRESH=0.5
X_U1_U2_U23         U1_DIAG_EN_OK U1_U2_N16775123 INV_BASIC_GEN PARAMS: VDD=1
+  VSS=0 VTHRESH=500E-3
V_U1_U2_V10         U1_U2_VCL_REF 0 0.8Vdc
R_U1_U2_Rsource         U1_U2_N16978583 U1_U2_VCL_REF  1u TC=0,0 
X_U1_U2_U1         U1_U2_N16882413 U1_U2_N16882454 U1_U2_COMP COMP_BASIC_GEN
+  PARAMS: VDD=1 VSS=0 VTHRESH=0.5
X_U1_U2_U20         U1_U2_CS1 U1_U2_VCS_H d_d 
V_U1_U2_V1         U1_U2_N16882454 0 0.5
V_U1_U2_V12         U1_U2_VCS_H 0 5.52
X_U1_U2_U22         U1_U2_N16882413 U1_U2_N16882378 d_d 
X_U1_U2_U5         U1_VCL_TH U1_CH1_VCL U1_U2_CL_FLAG1 COMP_BASIC_GEN PARAMS:
+  VDD=1 VSS=0 VTHRESH=0.5
C_U1_U2_C6         0 U1_U2_N16775077  1u IC=0 TC=0,0 
R_U1_U2_R4         U1_U2_N16775703 U1_U2_N16819357  14.43 TC=0,0 
X_U1_U2_U15         U1_U2_OL_OFF_PU U1_U2_CL_FLAG1 U1_U2_PULL_UP OR2_BASIC_GEN
+  PARAMS: VDD=1 VSS=0 VTHRESH=500E-3
I_U1_U2_I1         0 U1_U2_N16882413 DC 2.777uAdc  
R_U1_U2_R5         U1_U2_N16996483 U1_U2_CS1  1 TC=0,0 
C_U1_U2_C3         0 U1_U2_N16819357  1u IC=0 TC=0,0 
E_U1_U2_ABM1         U1_U2_N16774523 0 VALUE { V(U1_I_SENSE)/300    }
X_U1_U2_H2    U1_U2_N16979598 0 U1_U2_N16979626 0 CL_CS_FAULT1_U1_U2_H2 
R_U1_U2_R6         U1_IN_OK U1_U2_N16775761  72 TC=0,0 
X_U1_U2_U17         U1_U2_CL_FLAG1 U1_U2_N16897126 INV_BASIC_GEN PARAMS: VDD=1
+  VSS=0 VTHRESH=500E-3
X_U1_U2_H1    U1_U2_N16976252 0 U1_U2_N16976268 0 CL_CS_FAULT1_U1_U2_H1 
E_U1_U2_ABM11         U1_U2_N16996483 0 VALUE { IF(V(U1_U2_PULL_UP)>0.5,
+  5.52,IF(V(U1_U2_PULL_DOWN)>0.5,0,V(U1_U2_CS1)))    }
E_U1_U2_ABM6         U1_U2_N16774961 0 VALUE { IF(V(U1_U2_N16819357)>0.5,1,0)  
+   }
E_U1_U2_ABM13         U1_U2_N16979671 0 VALUE { LIMIT(V(U1_U2_N16979626), 0,
+  250u)    }
X_U1_U2_U25         0 U1_U2_N16882413 d_d 
C_U1_U2_C5         0 U1_U2_N16775761  1u IC=0 TC=0,0 
X_U1_U2_F3    U1_U2_N16981340 U1_U2_N16978579 U1_U2_5VDC U1_U2_N16979598
+  CL_CS_FAULT1_U1_U2_F3 
R_U1_U2_R7         U1_U2_OL_OFF U1_U2_N16775077  808 TC=0,0 
E_U1_U2_ABM12         U1_U2_N16976397 0 VALUE { LIMIT(V(U1_U2_N16976268), 0,
+  250u)    }
R_U1_U2_Rcs         U1_U2_CS1 0  300 TC=0,0 
R_R3         NC1 0  1m TC=0,0 
X_U2_U3_U15         U2_U3_N17176588 U2_U3_N17179504 one_shot PARAMS:  T=40000  
C_U2_U3_C2         0 U2_U3_N17060988  1u IC=0 TC=0,0 
V_U2_U3_V16         U2_U3_N169777520 VS2 4.5
G_U2_U3_ABM2I1         U2_U3_GATE 0 VALUE {
+  IF(V(U2_U3_N17157507)-V(0)>0.5,5.4u,0)    }
V_U2_U3_V19         U2_U3_N17061229 0 5
E_U2_U3_ABM1         U2_U3_N17061596 0 VALUE { IF(V(U2_SWEN)>0.5,2.24u,0)    }
X_U2_U3_H1    U2_U3_N16977722 U2_U3_N17214973 U2_I_SENSE 0 DRIVER1_U2_U3_H1 
R_U2_U3_R2         U2_U3_N17061596 U2_U3_N17060988  1 TC=0,0 
R_U2_U3_R8         U2_U3_N16977722 U2_U3_GATE  200k TC=0,0 
X_U2_U3_F1    U2_U3_N17214973 OUT2_1 VS2 U2_VCL_TH DRIVER1_U2_U3_F1 
G_U2_U3_G1         U2_U3_N17061229 U2_U3_GATE U2_U3_N17060988 0 10
D_U2_U3_D5         U2_U3_N17036072 U2_U3_N16977722 DD 
G_U2_U3_ABM2I10         U2_U3_GATE 0 VALUE {
+  IF(V(U2_U3_N17179504)-V(0)>0.5,76u,0)    }
X_U2_U3_U24         U2_U3_N17179504 U2_U3_N17160869 INV_BASIC_GEN PARAMS: VDD=1
+  VSS=0 VTHRESH=500E-3
R_U2_U3_R10         U2_VCL_TH 0  6k TC=0,0 
R_U2_U3_R3         U2_U3_N17165879 U2_U3_N17165869  500 TC=0,0 
X_U2_U3_U6         U2_U3_N16977610 U2_U3_FASTTRIP one_shot PARAMS:  T=500  
E_U2_U3_ABM2         U2_U3_N17165879 0 VALUE { IF(V(U2_U3_N17165901)>0.5 &
+  V(U2_U3_GATE)<1.407,3.9u,0)    }
M_U2_U3_M1         U2_U3_N17155555 U2_U3_GATE U2_U3_N16977722 U2_U3_N16977722
+  NMOS01           
G_U2_U3_G2         U2_U3_N17165823 U2_U3_GATE U2_U3_N17165869 0 15
X_U2_U3_U11         U2_SWEN U2_U3_N17165901 one_shot PARAMS:  T=60000  
D_U2_U3_D4         U2_U3_GATE U2_U3_N169777520 DD 
R_U2_U3_R9         U2_U3_N17155555 VS2  45m TC=0,0 
C_U2_U3_C3         0 U2_U3_N17165869  1n IC=0 TC=0,0 
C_U2_U3_Cgs         U2_U3_GATE U2_U3_N16977722  1700p IC=0 TC=0,0 
G_U2_U3_ABM2I5         U2_U3_GATE 0 VALUE {
+  IF(V(U2_U3_FASTTRIP)-V(0)>0.5,15m,0)    }
V_U2_U3_V20         U2_U3_N17165823 0 5
X_U2_U3_U23         U2_SWEN U2_U3_N17176588 INV_BASIC_GEN PARAMS: VDD=1 VSS=0
+  VTHRESH=500E-3
G_U2_U3_ABM2I4         U2_U3_GATE 0 VALUE {
+  LIMIT((V(U2_VCL_TH)-V(CH2_VCL))*10m,0,100u)    }
X_U2_U3_U14         U2_U3_N17160869 U2_U3_N17157507 one_shot PARAMS:  T=50000  
V_U2_U3_V14         VS2 U2_U3_N17036072 59
E_U2_U3_ABM8         U2_U3_N16977610 0 VALUE { IF(V(U2_VCL_TH)
+  >1.5*V(CH2_VCL),1,0)    }
R_U2_U2_R4         U2_U2_N16798576 U2_U2_N16798981  14.43 TC=0,0 
X_U2_U2_S3    U2_U2_N16805427 0 STB2 0 CL_CS_FAULT2_U2_U2_S3 
V_U2_U2_V1         U2_U2_N16798907 0 0.5
C_U2_U2_C3         0 U2_U2_N16798981  1u IC=0 TC=0,0 
E_U2_U2_ABM6         U2_U2_N16799453 0 VALUE { IF(V(U2_U2_N16798981)>0.5,1,0)  
+   }
X_U2_U2_U16         U2_U2_N16799453 U2_U2_N16798636 U2_U2_PULL_DOWN
+  OR2_BASIC_GEN PARAMS: VDD=1 VSS=0 VTHRESH=500E-3
R_U2_U2_R3         U2_IN_OK U2_U2_N16798985  216 TC=0,0 
C_U2_U2_C2         0 U2_U2_N16798985  1u IC=0 TC=0,0 
E_U2_U2_ABM5         U2_U2_CS_SETTLE 0 VALUE { IF(V(U2_U2_N16798985)>0.5,1,0)  
+   }
X_U2_U2_U17         U2_U2_CL_FLAG2 U2_U2_N16798983 INV_BASIC_GEN PARAMS: VDD=1
+  VSS=0 VTHRESH=500E-3
X_U2_U2_U8         U2_U2_COMP U2_U2_N16798983 U2_U2_N16805432 N16798961
+  srlatchrhp_basic_gen PARAMS: VDD=1 VSS=0 VTHRESH=0.5
E_U2_U2_ABM1         U2_U2_N16799358 0 VALUE { V(U2_I_SENSE)/300    }
X_U2_U2_U5         U2_VCL_TH CH2_VCL U2_U2_CL_FLAG2 COMP_BASIC_GEN PARAMS:
+  VDD=1 VSS=0 VTHRESH=0.5
X_U2_U2_U22         U2_U2_N16798871 U2_U2_N16798830 d_d 
X_U2_U2_U12         U2_IN_OK U2_U2_N16798563 INV_BASIC_GEN PARAMS: VDD=1 VSS=0
+  VTHRESH=500E-3
G_U2_U2_ABMII1         U2_U2_N16798634 U2_U2_CS2 VALUE {
+  IF(V(U2_U2_CS_SETTLE)>0.5,V(U2_U2_N16799358),0)    }
X_U2_U2_U25         0 U2_U2_N16798871 d_d 
I_U2_U2_I1         0 U2_U2_N16798871 DC 2.777uAdc  
X_U2_U2_U14         U2_DIAG_EN_OK U2_U2_N16798576 INV_BASIC_GEN PARAMS: VDD=1
+  VSS=0 VTHRESH=500E-3
E_U2_U2_ABM3         U2_U2_OL_OFF_PU 0 VALUE { IF(V(U2_U2_N16805333)>0.5,1,0)  
+   }
V_U2_U2_V11         U2_U2_VOL_OFF 0 1.8
X_U2_U2_U7         U2_U2_VOL_OFF U2_U2_N16798570 U2_U2_N16799575 COMP_BASIC_GEN
+  PARAMS: VDD=1 VSS=0 VTHRESH=0.5
X_U2_U2_U15         U2_U2_OL_OFF_PU U2_U2_CL_FLAG2 U2_U2_PULL_UP OR2_BASIC_GEN
+  PARAMS: VDD=1 VSS=0 VTHRESH=500E-3
X_U2_U2_U26         U2_U2_N16805341 U2_U2_OL_OFF_PU U2_U2_N16805432
+  U2_U2_N16805427 OR3_BASIC_GEN PARAMS: VDD=1 VSS=0 VTHRESH=500E-3
X_U2_U2_U20         U2_U2_CS2 U2_U2_VCS_H d_d 
X_U2_U2_U18         U2_U2_N16799308 U2_U2_N16798636 INV_BASIC_GEN PARAMS: VDD=1
+  VSS=0 VTHRESH=500E-3
C_U2_U2_C6         0 U2_U2_N16805333  1u IC=0 TC=0,0 
R_U2_U2_Rcs         U2_U2_CS2 0  300 TC=0,0 
R_U2_U2_R6         U2_IN_OK U2_U2_N16799253  72 TC=0,0 
E_U2_U2_ABM8         U2_U2_N16799308 0 VALUE { IF(V(U2_U2_N16799253)>0.5,1,0)  
+   }
X_U2_U2_U11         U2_U2_N16799575 U2_U2_N16798563 U2_U2_OL_OFF AND2_BASIC_GEN
+  PARAMS: VDD=1 VSS=0 VTHRESH=500E-3
V_U2_U2_V12         U2_U2_VCS_H 0 5.52
C_U2_U2_C5         0 U2_U2_N16799253  1u IC=0 TC=0,0 
X_U2_U2_U23         U2_DIAG_EN_OK U2_U2_N16805341 INV_BASIC_GEN PARAMS: VDD=1
+  VSS=0 VTHRESH=500E-3
V_U2_U2_V2         U2_U2_N16798830 0 1
E_U2_U2_ABM4         U2_U2_N16798570 0 VALUE { V(VS2)  
+ -V(OUT2_1)    }
R_U2_U2_R5         U2_U2_N16825841 U2_U2_CS2  1 TC=0,0 
V_U2_U2_V5         U2_U2_N16798634 0 5
X_U2_U2_S1    U2_U2_CL_FLAG2 0 U2_U2_N16798871 0 CL_CS_FAULT2_U2_U2_S1 
R_U2_U2_R7         U2_U2_OL_OFF U2_U2_N16805333  808 TC=0,0 
E_U2_U2_ABM11         U2_U2_N16825841 0 VALUE { IF(V(U2_U2_PULL_UP)>0.5,
+  5.52,IF(V(U2_U2_PULL_DOWN)>0.5,0,V(U2_U2_CS2)))    }
C_U2_U2_C1         U2_U2_N16798871 0  1n  TC=0,0 
X_U2_U2_U21         U2_U2_N16805333 U2_U2_OL_OFF d_d 
X_U2_U2_U1         U2_U2_N16798871 U2_U2_N16798907 U2_U2_COMP COMP_BASIC_GEN
+  PARAMS: VDD=1 VSS=0 VTHRESH=0.5
X_U2_U1_U3         U2_U1_N16778395 U2_IN_OK U2_SWEN AND2_BASIC_GEN PARAMS:
+  VDD=1 VSS=0 VTHRESH=500E-3
R_U2_U1_R1         VS2 0  175k TC=0,0 
X_U2_U1_U1         IN2 U2_U1_VUVR U2_U1_N167782823 U2_U1_N16778395
+  COMPHYS_BASIC_GEN PARAMS: VDD=1 VSS=0 VTHRESH=0.5
V_U2_U1_Vuv_hys         U2_U1_N167782823 0 0.5
V_U2_U1_V2         U2_U1_VUVR 0 3.7
R_U2_U1_R4         DIAG_EN 0  275k TC=0,0 
X_U2_U1_U2         VS2 U2_U1_N16778379 U2_U1_N167783383 U2_IN_OK
+  COMPHYS_BASIC_GEN PARAMS: VDD=1 VSS=0 VTHRESH=0.5
V_U2_U1_V3         U2_U1_N167783383 0 250m
X_U2_U1_U4         DIAG_EN U2_U1_N19306 U2_U1_N192183 U2_DIAG_EN_OK
+  COMPHYS_BASIC_GEN PARAMS: VDD=1 VSS=0 VTHRESH=0.5
V_U2_U1_V4         U2_U1_N16778379 0 2
V_U2_U1_V5         U2_U1_N192183 0 250m
V_U2_U1_V6         U2_U1_N19306 0 2
R_R2         GND 0  1m TC=0,0 
R_R5         NC2 0  1m TC=0,0 
R_R4         THER 0  1m TC=0,0 
.ENDS TPS2H160A-Q1_TRANS
*$
.SUBCKT DRIVER1_U1_U3_H1 1 2 3 4  
H_U1_U3_H1         3 4 VH_U1_U3_H1 1
VH_U1_U3_H1         1 2 0V
.ENDS DRIVER1_U1_U3_H1
*$
.SUBCKT DRIVER1_U1_U3_F1 1 2 3 4  
F_U1_U3_F1         3 4 VF_U1_U3_F1 25u
VF_U1_U3_F1         1 2 0V
.ENDS DRIVER1_U1_U3_F1
*$
.SUBCKT CL_CS_FAULT1_U1_U2_F2 1 2 3 4  
F_U1_U2_F2         3 4 VF_U1_U2_F2 62.5m
VF_U1_U2_F2         1 2 0V
.ENDS CL_CS_FAULT1_U1_U2_F2
*$
.SUBCKT CL_CS_FAULT1_U1_U2_S1 1 2 3 4  
S_U1_U2_S1         3 4 1 2 _U1_U2_S1
RS_U1_U2_S1         1 2 1G
.MODEL         _U1_U2_S1 VSWITCH Roff=1E9 Ron=1 Voff=1 Von=0
.ENDS CL_CS_FAULT1_U1_U2_S1
*$
.SUBCKT CL_CS_FAULT1_U1_U2_F1 1 2 3 4  
F_U1_U2_F1         3 4 VF_U1_U2_F1 1
VF_U1_U2_F1         1 2 0V
.ENDS CL_CS_FAULT1_U1_U2_F1
*$
.SUBCKT CL_CS_FAULT1_U1_U2_S3 1 2 3 4  
S_U1_U2_S3         3 4 1 2 _U1_U2_S3
RS_U1_U2_S3         1 2 1G
.MODEL         _U1_U2_S3 VSWITCH Roff=10e6 Ron=200 Voff=0.49 Von=0.5
.ENDS CL_CS_FAULT1_U1_U2_S3
*$
.SUBCKT CL_CS_FAULT1_U1_U2_H2 1 2 3 4  
H_U1_U2_H2         3 4 VH_U1_U2_H2 1
VH_U1_U2_H2         1 2 0V
.ENDS CL_CS_FAULT1_U1_U2_H2
*$
.SUBCKT CL_CS_FAULT1_U1_U2_H1 1 2 3 4  
H_U1_U2_H1         3 4 VH_U1_U2_H1 1
VH_U1_U2_H1         1 2 0V
.ENDS CL_CS_FAULT1_U1_U2_H1
*$
.SUBCKT CL_CS_FAULT1_U1_U2_F3 1 2 3 4  
F_U1_U2_F3         3 4 VF_U1_U2_F3 62.5m
VF_U1_U2_F3         1 2 0V
.ENDS CL_CS_FAULT1_U1_U2_F3
*$
.SUBCKT DRIVER1_U2_U3_H1 1 2 3 4  
H_U2_U3_H1         3 4 VH_U2_U3_H1 1
VH_U2_U3_H1         1 2 0V
.ENDS DRIVER1_U2_U3_H1
*$
.SUBCKT DRIVER1_U2_U3_F1 1 2 3 4  
F_U2_U3_F1         3 4 VF_U2_U3_F1 25u
VF_U2_U3_F1         1 2 0V
.ENDS DRIVER1_U2_U3_F1
*$
.SUBCKT CL_CS_FAULT2_U2_U2_S3 1 2 3 4  
S_U2_U2_S3         3 4 1 2 _U2_U2_S3
RS_U2_U2_S3         1 2 1G
.MODEL         _U2_U2_S3 VSWITCH Roff=10e6 Ron=200 Voff=0.49 Von=0.5
.ENDS CL_CS_FAULT2_U2_U2_S3
*$
.SUBCKT CL_CS_FAULT2_U2_U2_S1 1 2 3 4  
S_U2_U2_S1         3 4 1 2 _U2_U2_S1
RS_U2_U2_S1         1 2 1G
.MODEL         _U2_U2_S1 VSWITCH Roff=1E9 Ron=1 Voff=1 Von=0
.ENDS CL_CS_FAULT2_U2_U2_S1
*$
.SUBCKT ONE_SHOT IN OUT
+ PARAMs:  T=100
S_S1         MEAS 0 RESET2 0 S1
E_ABM1         CH 0 VALUE { if( V(IN)>0.5 | V(OUT)>0.5,1,0)    }
R_R2         RESET2 RESET  0.1  
E_ABM3         OUT 0 VALUE { if( V(MEAS)<0.5 & V(CH)>0.5,1,0)    }
R_R1         MEAS CH  {T} 
C_C2         0 RESET2  1.4427n  
C_C1         0 MEAS  1.4427n  
E_ABM2         RESET 0 VALUE { if(V(CH)<0.5,1,0)    }
.MODEL         S1 VSWITCH Roff=1e9 Ron=1.0 Voff=0.25V Von=0.75V
.ENDS ONE_SHOT
*$
.SUBCKT AND2_BASIC_GEN A B Y PARAMS: VDD=1 VSS=0 VTHRESH=0.5 
E_ABMGATE    YINT 0 VALUE {{IF(V(A) > {VTHRESH}  &  
+ V(B) > {VTHRESH},{VDD},{VSS})}}
RINT YINT Y 1
CINT Y 0 1n
.ENDS AND2_BASIC_GEN
*$
.SUBCKT OR2_BASIC_GEN A B Y PARAMS: VDD=1 VSS=0 VTHRESH=0.5 
E_ABMGATE    YINT 0 VALUE {{IF(V(A) > {VTHRESH}  |  
+ V(B) > {VTHRESH},{VDD},{VSS})}}
RINT YINT Y 1
CINT Y 0 1n
.ENDS OR2_BASIC_GEN
*$
.SUBCKT OR3_BASIC_GEN A B C Y PARAMS: VDD=1 VSS=0 VTHRESH=0.5 
E_ABMGATE    YINT 0 VALUE {{IF(V(A) > {VTHRESH}  |  
+ V(B) > {VTHRESH} |
+ V(C) > {VTHRESH},{VDD},{VSS})}}
RINT YINT Y 1
CINT Y 0 1n
.ENDS OR3_BASIC_GEN
*$
.SUBCKT INV_BASIC_GEN A  Y PARAMS: VDD=1 VSS=0 VTHRESH=0.5 
E_ABMGATE    YINT 0 VALUE {{IF(V(A) > {VTHRESH} , 
+ {VSS},{VDD})}}
RINT YINT Y 1
CINT Y 0 1n
.ENDS INV_BASIC_GEN
*$
.SUBCKT INV_DELAY_BASIC_GEN A  Y PARAMS: VDD=1 VSS=0 VTHRESH=0.5 DELAY = 10n 
E_ABMGATE1    YINT1 0 VALUE {{IF(V(A) > {VTHRESH} , 
+ {VDD},{VSS})}}
RINT YINT1 YINT2 1
CINT YINT2 0 {DELAY*1.3}
E_ABMGATE2    YINT3 0 VALUE {{IF(V(YINT2) > {VTHRESH} , 
+ {VSS},{VDD})}}
RINT2 YINT3 Y 1
CINT2 Y 0 1n
.ENDS INV_DELAY_BASIC_GEN
*$
.SUBCKT BUF_DELAY_BASIC_GEN A  Y PARAMS: VDD=1 VSS=0 VTHRESH=0.5 DELAY = 10n 
E_ABMGATE1    YINT1 0 VALUE {{IF(V(A) > {VTHRESH} , 
+ {VDD},{VSS})}}
RINT YINT1 YINT2 1
CINT YINT2 0 {DELAY*1.3}
E_ABMGATE2    YINT3 0 VALUE {{IF(V(YINT2) > {VTHRESH} , 
+ {VDD},{VSS})}}
RINT2 YINT3 Y 1
CINT2 Y 0 1n
.ENDS BUF_DELAY_BASIC_GEN
*$
.SUBCKT BUF_BASIC_GEN A  Y PARAMS: VDD=1 VSS=0 VTHRESH=0.5 
E_ABMGATE    YINT 0 VALUE {{IF(V(A) > {VTHRESH} , 
+ {VDD},{VSS})}}
RINT YINT Y 1
CINT Y 0 1n
.ENDS BUF_BASIC_GEN
*$
.SUBCKT COMP_BASIC_GEN INP INM Y PARAMS: VDD=1 VSS=0 VTHRESH=0.5	
E_ABM Yint 0 VALUE {IF (V(INP) > 
+ V(INM), {VDD},{VSS})}
R1 Yint Y 1
C1 Y 0 1n
.ENDS COMP_BASIC_GEN
*$
.SUBCKT COMPHYS_BASIC_GEN INP INM HYS OUT PARAMS: VDD=1 VSS=0 VTHRESH=0.5	
EIN INP1 INM1 INP INM 1 
EHYS INP1 INP2 VALUE { IF( V(1) > {VTHRESH},-V(HYS),0) }
EOUT OUT 0 VALUE { IF( V(INP2)>V(INM1), {VDD} ,{VSS}) }
R1 OUT 1 1
C1 1 0 5n
RINP1 INP1 0 1K
.ENDS COMPHYS_BASIC_GEN
*$
.MODEL NMOS01 NMOS (VTO = 1.407 KP = 3.233 LAMBDA  = 0.001)
*$
**Reset has higher priority in this latch
.SUBCKT SRLATCHRHP_BASIC_GEN S R Q QB PARAMS: VDD=1 VSS=0 VTHRESH=0.5 
GQ 0 Qint VALUE = {IF(V(R) > {VTHRESH},-5,IF(V(S)>{VTHRESH},5, 0))}
CQint Qint 0 1n
RQint Qint 0 1000MEG
D_D10 Qint MY5 D_D1
V1 MY5 0 {VDD}
D_D11 MYVSS Qint D_D1
V2 MYVSS 0 {VSS} 
EQ Qqq 0 Qint 0 1
X3 Qqq Qqqd1 BUF_BASIC_GEN PARAMS: VDD={VDD} VSS={VSS} VTHRESH={VTHRESH}
RQq Qqqd1 Q 1
EQb Qbr 0 VALUE = {IF( V(Q) > {VTHRESH}, {VSS},{VDD})}
RQb Qbr QB 1 
Cdummy1 Q 0 1n 
Cdummy2 QB 0 1n
.IC V(Qint) {VSS}
.MODEL D_D1 D( IS=1e-15 TT=10p Rs=0.05 N=.1 )
.ENDS SRLATCHRHP_BASIC_GEN
*$
.MODEL dd d (is=1e-015 n=1 tt=1e-011 Rs=15m )
*$
.MODEL DD1 D(IS=1e-15 TT=10p Rs=0.05 N=.1)
*$
.SUBCKT D_D1 1 2
D1 1 2 DD1
.MODEL DD1 D(IS=1e-15 TT=10p Rs=0.05 N=.1)
.ENDS D_D1
*$
.SUBCKT d_d 1 2
d1 1 2 dd
.MODEL dd d (is=1e-015 n=0.01 tt=1e-011)
.ENDS d_d
*$