*$
* TPS22990
*****************************************************************************
* (C) Copyright 2016 Texas Instruments Incorporated. All rights reserved.                                            
*****************************************************************************
** This model is designed as an aid for customers of Texas Instruments.
** TI and its licensors and suppliers make no warranties, either expressed
** or implied, with respect to this model, including the warranties of 
** merchantability or fitness for a particular purpose.  The model is
** provided solely on an "as is" basis.  The entire risk as to its quality
** and performance is with the customer
*****************************************************************************
*
* This model is subject to change without notice. Texas Instruments
* Incorporated is not responsible for updating this model.
*
*****************************************************************************
*
** Released by: WEBENCH Design Center, Texas Instruments Inc.
* Part: TPS22990
* Date: 29JUN2016
* Model Type: TRANSIENT
* Simulator: PSPICE
* Simulator Version: 16.2.0.p001
* EVM Order Number: TPS22990EVM
* EVM Users Guide: SLVUAS2 – June 2016
* Datasheet: SLVSDK1A – MAY 2016 – REVISED JUNE 2016
*
* Model Version: Final 1.00
*
*****************************************************************************
*
* Updates:
*
* Final 1.00
* Release to Web.
*
*****************************************************************************
*
* Model Usage Notes:
*
* 1. These timing parameters are modeled wrt VIN & CT changes: 
*     tR, tF, tON, tOFF, tPG,ON, tPG,OFF & tD
* 2. RPD and RON have also been modeled
* 3. The operating quiescent current has not been modelled
* 4. Temperature effects are not modeled. 
*
*****************************************************************************
.SUBCKT TPS22990_TRANS CT GND ON PG VBIAS VIN_2 VOUT_1 VOUT_2 VOUT_3 NC PAD
R_PAD PAD 0 1k
R_NC NC 0 1k   
D_D4         0 N16273024 DD 
V_V3         N16273124 0 1
X_U3         N16273024 N16273024 PG_PRE OR2_BASIC_GEN PARAMS: VDD=1 VSS=0
+  VTHRESH=500E-3
X_U1 CT CT_VALUE GND ON VBIAS VIN VOUT1_INT CHANNEL_X  
X_S1    PG_PRE 0 PG 0 TPS22990_TRANS_S1 
C_C1         0 N16273024  0.1n  
V_V1         VIN_2 VIN 0Vdc
E_E4         PGON_3P3VBIAS 0 TABLE { V(VIN, 0) } 
+ ( (0.6,0.42u)(1.05,0.41u)(1.8,0.4u)(3.3,0.379u)(5,0.329u) )
R_R2         VOUT_1 VOUT_2  1m TC=0,0 
G_ABMII1         0 N16273024 VALUE { if(V(ON)>2.75,if
+  (V(VBIAS)>4.2,((0.1E-9*0.5)/(V(DELAY_TOFF)*1e-6)),V(PGON_3P3VBIAS)),-37.5u)   
+  }
V_V2         VOUT1_INT VOUT_1 0Vdc
E_ABM1         DELAY_TOFF 0 VALUE { (((0.013 *
+  V(VIN))+0.04)*(1E12*V(CT_VALUE)))+(4.7*V(VIN))+  
+ 129   }
R_R3         VOUT_1 VOUT_3  1m TC=0,0 
D_D3         N16273024 N16273124 DD 
.ENDS TPS22990_TRANS
*$
.SUBCKT CHANNEL_X CT CT_VALUE GND_INT ON VBIAS VIN VOUT  
X_U1 ON N02967 VBIAS VIN CONTROL  
X_U2 CT CT_VALUE GND_INT N02967 VBIAS VIN VOUT DRIVER  
.ENDS CHANNEL_X
*$
.SUBCKT DRIVER CT CT_VALUE GND_INT ON_INT VBIAS VIN VOUT  
G_ABM2I3         VGATE_CLAMP CT VALUE { IF ( V(ON_INT) >
+  0.5,if(V(CT)<0.7,V(INI_CURRENT),V(N16257158)),0)    }
X_U1_U2_S3    ON_INT 0 N16170706 GND_INT DRIVER_U1_U2_S3 
X_U8         VIN CT_VALUE N16257158 0 I_EQN
X_U1_U2_S4    CTRL 0 CHARGE_SAVE CT DRIVER_U1_U2_S4 
D_D3         CT VGATE_CLAMP DD 
I_I1         0 CT DC 0Adc AC 0Aac
+PULSE 0 1 1n 1p 1p 100n 1Meg
R_R1         N16257158 0  1  
X_U1         VIN CT N16170706 IDEAL_MOS PARAMS: VTH=0.8 KP=40
V_V2         CTRL_INV 0  
+PULSE 1 0 1n 1p 1p 100n 1Meg
C_C3         0 VOUT  0.1u  
V_V1         CTRL 0  
+PULSE 0 1 1n 1p 1p 100n 1Meg
D_D4         N16170706 VIN DD 
X_U1_U2_S2    CTRL_CHG 0 CT 0 DRIVER_U1_U2_S2 
E_ABM1         CT_VALUE 0 VALUE { LIMIT(((100n/V(CHARGE_SAVE))-300p),0,10n)   
+  }
V_V3         CTRL_VIN 0  
+PULSE 0 1 1n 1p 1p 200n 1Meg
C_C2         0 CHARGE_SAVE  1p  
X_U9         VIN CT_VALUE INI_CURRENT 0 I_INI
X_U2         ON_INT CTRL CTRL_CHG OR2_BASIC_GEN PARAMS: VDD=1 VSS=0
+  VTHRESH=500E-3
X_U1_U2_S5    CTRL_VIN 0 VOUT N16170706 DRIVER_U1_U2_S5 
E_ABM2         VGATE_CLAMP 0 VALUE {
+  IF(V(CTRL)>0.5,1000,IF(V(VBIAS)<4.2,V(VIN)+5.8,V(VIN)+8))    }
C_C6         CT VIN  0.3n  
R_R2         INI_CURRENT 0  1  
.ENDS DRIVER
*$
.SUBCKT CONTROL ON ON_INT VBIAS VIN  
V_V2         N14514474 0 0
E_E4         N16271664 0 TABLE { V(VIN, 0) } 
+ ( (0.6,6.24u)(1.05,6.84u)(1.8,8.18u)(3.3,10.4u)(5,16.1u) )
X_U45         ON_INT_PRE ON_INT_PRE_BUFF BUF_BASIC_GEN PARAMS: VDD=1 VSS=0
+  VTHRESH=0.5
X_U2         ON_INT_PRE_BUFF N16269805 ON_INT OR2_BASIC_GEN PARAMS: VDD=1 VSS=0
+  VTHRESH=500E-3
D_D3         N16269805 N16269774 DD 
X_U1         ON N14514452 N14514474 ON_INT_PRE COMPHYS_BASIC_GEN PARAMS: VDD=1
+  VSS=0 VTHRESH=0.5
E_E3         N16271609 0 TABLE { V(VIN, 0) } 
+ ( (0.6,6.74u)(1.05,7.56u)(1.8,8.91u)(3.3,10.4u)(5,12.5u) )
D_D4         0 N16269805 DD 
E_ABM1         DELAY_TOFF 0 VALUE { if(V(VBIAS)>4.2, V(N16271609),  
+ V(N16271664))   }
V_V3         N16269774 0 1
G_ABMII1         0 N16269805 VALUE {
+  if(V(ON_INT_PRE_BUFF)>0.5,V(DELAY_TOFF),-V(DELAY_TOFF))    }
V_V1         N14514452 0 2.75
C_C1         0 N16269805  0.1n  
.ENDS CONTROL
*$
.subckt TPS22990_TRANS_S1 1 2 3 4  
S_S1         3 4 1 2 _S1
RS_S1         1 2 1G
.MODEL         _S1 VSWITCH Roff=100e6 Ron=1.0 Voff=0.75 Von=0.25
.ends TPS22990_TRANS_S1
*$
.subckt DRIVER_U1_U2_S3 1 2 3 4  
S_S3         3 4 1 2 _S3
RS_S3         1 2 1G
.MODEL         _S3 VSWITCH Roff=1e6 Ron=218 Voff=0.8 Von=0.2
.ends DRIVER_U1_U2_S3
*$
.subckt DRIVER_U1_U2_S4 1 2 3 4  
S_S4         3 4 1 2 _S4
RS_S4         1 2 1G
.MODEL         _S4 VSWITCH Roff=1e12 Ron=1u Voff=0.25 Von=0.75
.ends DRIVER_U1_U2_S4
*$
.subckt DRIVER_U1_U2_S2 1 2 3 4  
S_S2         3 4 1 2 _S2
RS_S2         1 2 1G
.MODEL         _S2 VSWITCH Roff=1e9 Ron=1u Voff=1 Von=0
.ends DRIVER_U1_U2_S2
*$
.subckt DRIVER_U1_U2_S5 1 2 3 4  
S_S5         3 4 1 2 _S5
RS_S5         1 2 1G
.MODEL         _S5 VSWITCH Roff=1e12 Ron=1u Voff=1 Von=0
.ends DRIVER_U1_U2_S5
*$
.model DD d
+ is=1e-015
+ n=0.01
+ tt=1e-011
*$
.SUBCKT COMPHYS_BASIC_GEN INP INM HYS OUT PARAMS: VDD=1 VSS=0 VTHRESH=0.5	
EIN INP1 INM1 INP INM 1 
EHYS INP1 INP2 VALUE { IF( V(1) > {VTHRESH},-V(HYS),0) }
EOUT OUT 0 VALUE { IF( V(INP2)>V(INM1), {VDD} ,{VSS}) }
R1 OUT 1 1
C1 1 0 5n
RINP1 INP1 0 1K
.ENDS COMPHYS_BASIC_GEN
*$
.SUBCKT AND2_BASIC_GEN A B Y PARAMS: VDD=1 VSS=0 VTHRESH=0.5 
E_ABMGATE    YINT 0 VALUE {{IF(V(A) > {VTHRESH}  &  
+ V(B) > {VTHRESH},{VDD},{VSS})}}
RINT YINT Y 1
CINT Y 0 1n
.ENDS AND2_BASIC_GEN
*$
.SUBCKT INV_BASIC_GEN A  Y PARAMS: VDD=1 VSS=0 VTHRESH=0.5 
E_ABMGATE    YINT 0 VALUE {{IF(V(A) > {VTHRESH} , 
+ {VSS},{VDD})}}
RINT YINT Y 1
CINT Y 0 1n
.ENDS INV_BASIC_GEN
*$
.SUBCKT BUF_BASIC_GEN A  Y PARAMS: VDD=1 VSS=0 VTHRESH=0.5 
E_ABMGATE    YINT 0 VALUE {{IF(V(A) > {VTHRESH} , 
+ {VDD},{VSS})}}
RINT YINT Y 1
CINT Y 0 1n
.ENDS BUF_BASIC_GEN
*$
.SUBCKT NOR2_BASIC_GEN A B Y PARAMS: VDD=1 VSS=0 VTHRESH=0.5 
E_ABMGATE    YINT 0 VALUE {{IF(V(A) > {VTHRESH}  |  
+ V(B) > {VTHRESH},{VSS},{VDD})}}
RINT YINT Y 1
CINT Y 0 1n
.ENDS NOR2_BASIC_GEN
*$
.SUBCKT ONE_SHOT IN OUT
+ PARAMs:  T=100
S_S1         MEAS 0 RESET2 0 S1
E_ABM1         CH 0 VALUE { if( V(IN)>0.5 | V(OUT)>0.5,1,0)    }
R_R2         RESET2 RESET  0.1  
E_ABM3         OUT 0 VALUE { if( V(MEAS)<0.5 & V(CH)>0.5,1,0)    }
R_R1         MEAS CH  {T} 
C_C2         0 RESET2  1.4427n  
C_C1         0 MEAS  1.4427n  
E_ABM2         RESET 0 VALUE { if(V(CH)<0.5,1,0)    }
.MODEL         S1 VSWITCH Roff=1e9 Ron=1.0 Voff=0.25V Von=0.75V
.ENDS ONE_SHOT
*$
.model d_d1 d
+ is=1e-015
+ tt=1e-011
+ rs=0.05
+ n=0.1
*$
.SUBCKT INV_BASIC_GEN1 A  Y PARAMS: VDD=1 VSS=0 VTHRESH=0.5 
E_ABMGATE    Y 0 VALUE {{IF(V(A) > {VTHRESH} , 
+ {VSS},{VDD})}}
.ENDS INV_BASIC_GEN1
*$
.SUBCKT COMP_BASIC_GEN INP INM Y PARAMS: VDD=1 VSS=0 VTHRESH=0.5	
E_ABM Yint 0 VALUE {IF (V(INP) > 
+ V(INM), {VDD},{VSS})}
R1 Yint Y 1
C1 Y 0 1n
.ENDS COMP_BASIC_GEN
*$
.SUBCKT I_EQN VIN CT IOUT1 IOUT2
E_ABM1         O1 0 VALUE { V(L1)*V(L2)*V(L3)*V(L4)*V(VIN_0p6V)    }
E_ABM5         O5 0 VALUE { V(L1_N)*V(L2_N)*V(L3_N)*V(L4_N)*V(VIN_5V)    }
X_U2         L1 L1_N INV_BASIC_GEN PARAMS: VDD=1 VSS=0 VTHRESH=500E-3
V_V3         N162486340 0 0.61
G_G1         IOUT2 IOUT1 N16244928 0 1
E_ABM3         O3 0 VALUE { V(L1_N)*V(L2_N)*V(L3)*V(L4)*V(VIN_1p8V)    }
E_E6         VIN_0P6V 0 TABLE { V(CT, 0) } 
+ (
+  (0,1.54354E-05)(2.2E-10,2.22955E-05)(4.7E-10,2.85126E-05)(1E-9,3.54985E-05)
+ (2.2E-9,4.41143E-05)(4.7E-9,5.08095E-05)(1E-8,5.10599E-05)
+  )
E_ABM4         O4 0 VALUE { V(L1_N)*V(L2_N)*V(L3_N)*V(L4)*V(VIN_3p3V)    }
E_E2         VIN_5V 0 TABLE { V(CT, 0) } 
+ (
+  (0,4.00645E-05)(2.2E-10,4.74905E-05)(4.7E-10,5.54131E-05)(1E-9,6.22964E-05)
+ (2.2E-9,6.58672E-05)(4.7E-9,7.15605E-05)(1E-8,7.00989E-05)
+  )
E_ABM6         N16244928 0 VALUE { V(O1)+V(O2)+V(O3)+V(O4)+V(O5)    }
E_ABM2         O2 0 VALUE { V(L1_N)*V(L2)*V(L3)*V(L4)*V(VIN_1p05V)    }
X_U3         N162514740 VIN L2 COMP_BASIC_GEN PARAMS: VDD=1 VSS=0 VTHRESH=0.5
X_U5         N162517320 VIN L3 COMP_BASIC_GEN PARAMS: VDD=1 VSS=0 VTHRESH=0.5
V_V4         N162514740 0 1.06
E_E4         VIN_1P8V 0 TABLE { V(CT, 0) } 
+ (
+  (0,2.51376E-05)(2.2E-10,3.35906E-05)(4.7E-10,4.16641E-05)(1E-9,4.90043E-05)
+ (2.2E-9,5.666E-05)(4.7E-9,6.40892E-05)(1E-8,6.47664E-05)
+  )
V_V5         N162517320 0 1.81
X_U7         N162519970 VIN L4 COMP_BASIC_GEN PARAMS: VDD=1 VSS=0 VTHRESH=0.5
E_E3         VIN_3P3V 0 TABLE { V(CT, 0) } 
+ (
+  (0,3.25201E-05)(2.2E-10,4.11156E-05)(4.7E-10,4.90524E-05)(1E-9,5.71985E-05)
+ (2.2E-9,6.28114E-05)(4.7E-9,6.94658E-05)(1E-8,6.84036E-05)
+  )
X_U4         L2 L2_N INV_BASIC_GEN PARAMS: VDD=1 VSS=0 VTHRESH=500E-3
X_U1         N162486340 VIN L1 COMP_BASIC_GEN PARAMS: VDD=1 VSS=0 VTHRESH=0.5
V_V6         N162519970 0 3.31
X_U6         L3 L3_N INV_BASIC_GEN PARAMS: VDD=1 VSS=0 VTHRESH=500E-3
X_U8         L4 L4_N INV_BASIC_GEN PARAMS: VDD=1 VSS=0 VTHRESH=500E-3
E_E5         VIN_1P05V 0 TABLE { V(CT, 0) } 
+ (
+  (0,2.03661E-05)(2.2E-10,2.81517E-05)(4.7E-10,3.50341E-05)(1E-9,4.41266E-05)
+ (2.2E-9,5.22847E-05)(4.7E-9,5.87484E-05)(1E-8,5.99754E-05)
+  )
.ENDS I_EQN
*$
.SUBCKT OR2_BASIC_GEN A B Y PARAMS: VDD=1 VSS=0 VTHRESH=0.5 
E_ABMGATE    YINT 0 VALUE {{IF(V(A) > {VTHRESH}  |  
+ V(B) > {VTHRESH},{VDD},{VSS})}}
RINT YINT Y 1m
CINT Y 0 1n
.ENDS OR2_BASIC_GEN
*$
.SUBCKT IDEAL_MOS d g s PARAMS: vth=0.323 kp=50
VDC vth 0 0.7
G_id d s VALUE={if(V(g,s)<V(vth),0,min(256.41*V(d,s),kp*((V(g,s)-V(vth))**2)))}
.ends IDEAL_MOS
*$
.SUBCKT I_INI VIN CT IOUT1 IOUT2
E_ABM1         O1 0 VALUE { V(L1)*V(L2)*V(L3)*V(L4)*V(VIN_0p6V)    }
E_ABM5         O5 0 VALUE { V(L1_N)*V(L2_N)*V(L3_N)*V(L4_N)*V(VIN_5V)    }
X_U2         L1 L1_N INV_BASIC_GEN PARAMS: VDD=1 VSS=0 VTHRESH=500E-3
V_V3         N162486340 0 0.61
G_G1         IOUT2 IOUT1 N16244928 0 1
E_ABM3         O3 0 VALUE { V(L1_N)*V(L2_N)*V(L3)*V(L4)*V(VIN_1p8V)    }
E_E6         VIN_0P6V 0 TABLE { V(CT, 0) } 
+ (
+  (0,9.07127E-06)(2.2E-10,1.38614E-05)(4.7E-10,1.82836E-05)(1E-9,2.54831E-05)
+ (2.2E-9,3.40931E-05)(4.7E-9,4.48775E-05)(1E-8,4.94717E-05)
+  )
E_ABM4         O4 0 VALUE { V(L1_N)*V(L2_N)*V(L3_N)*V(L4)*V(VIN_3p3V)    }
E_E2         VIN_5V 0 TABLE { V(CT, 0) } 
+ (
+  (0,1.15068E-05)(2.2E-10,1.69776E-05)(4.7E-10,2.2236E-05)(1E-9,2.87066E-05)
+ (2.2E-9,3.74412E-05)(4.7E-9,4.60284E-05)(1E-8,4.88648E-05)
+  )
E_ABM6         N16244928 0 VALUE { V(O1)+V(O2)+V(O3)+V(O4)+V(O5)    }
E_ABM2         O2 0 VALUE { V(L1_N)*V(L2)*V(L3)*V(L4)*V(VIN_1p05V)    }
X_U3         N162514740 VIN L2 COMP_BASIC_GEN PARAMS: VDD=1 VSS=0 VTHRESH=0.5
X_U5         N162517320 VIN L3 COMP_BASIC_GEN PARAMS: VDD=1 VSS=0 VTHRESH=0.5
V_V4         N162514740 0 1.06
E_E4         VIN_1P8V 0 TABLE { V(CT, 0) } 
+ (
+  (0,9.92908E-06)(2.2E-10,1.48997E-05)(4.7E-10,1.98235E-05)(1E-9,2.6067E-05)
+ (2.2E-9,3.49092E-05)(4.7E-9,4.47799E-05)(1E-8,4.84283E-05)
+  )
V_V5         N162517320 0 1.81
X_U7         N162519970 VIN L4 COMP_BASIC_GEN PARAMS: VDD=1 VSS=0 VTHRESH=0.5
E_E3         VIN_3P3V 0 TABLE { V(CT, 0) } 
+ (
+  (0,1.08136E-05)(2.2E-10,1.61062E-05)(4.7E-10,2.11538E-05)(1E-9,2.75008E-05)
+ (2.2E-9,3.60082E-05)(4.7E-9,4.51904E-05)(1E-8,4.84804E-05)
+  )
X_U4         L2 L2_N INV_BASIC_GEN PARAMS: VDD=1 VSS=0 VTHRESH=500E-3
X_U1         N162486340 VIN L1 COMP_BASIC_GEN PARAMS: VDD=1 VSS=0 VTHRESH=0.5
V_V6         N162519970 0 3.31
X_U6         L3 L3_N INV_BASIC_GEN PARAMS: VDD=1 VSS=0 VTHRESH=500E-3
X_U8         L4 L4_N INV_BASIC_GEN PARAMS: VDD=1 VSS=0 VTHRESH=500E-3
E_E5         VIN_1P05V 0 TABLE { V(CT, 0) } 
+ (
+  (0,9.27562E-06)(2.2E-10,1.40432E-05)(4.7E-10,1.87674E-05)(1E-9,2.50137E-05)
+ (2.2E-9,3.39082E-05)(4.7E-9,4.40695E-05)(1E-8,4.80314E-05)
+  )
.ENDS I_INI
*$
