*$
* TPS27SA08C-Q1
*****************************************************************************
* (C) Copyright 2020 Texas Instruments Incorporated. All rights reserved.                                            
*****************************************************************************
** This model is designed as an aid for customers of Texas Instruments.
** TI and its licensors and suppliers make no warranties, either expressed
** or implied, with respect to this model, including the warranties of 
** merchantability or fitness for a particular purpose.  The model is
** provided solely on an "as is" basis.  The entire risk as to its quality
** and performance is with the customer
*****************************************************************************
*
* This model is subject to change without notice. Texas Instruments
* Incorporated is not responsible for updating this model.
*
*****************************************************************************
*
** Released by: Texas Instruments Inc.
* Part: TPS27SA08C-Q1
* Date: 05AUG2020
* Model Type: Transient
* Simulator: PSPICE
* Simulator Version: 17.2-2016 S067
* EVM Order Number: NA
* EVM Users Guide: SLVUBA6–October 2017
* Datasheet: SLVSFJ6 –JANUARY 2020
*
* Model Version: Final 1.00
*
*****************************************************************************
*
* Updates:
*
* Final 1.00
* Release to Web.
*
*****************************************************************************
*
* Model Usage Notes:
* A. Features that have been modelled
*	1. SNS, LATCH, STx, ENx, SELx and DIA_EN pin functionalities modelled.
*	2. Switching and Timing Characteristics
*	3. Current Limit Foldback and Standby Delay
*	4. Open Load and Short to Battery
*	5. RON and Voltage Sense
*	6. SNS MUX and Fault Detect
*	7. RON variation with temperature
*	8. Thermal shutdown 
*
* B. Model Limitations and Features that haven't been modelled
*	1. During Light Load there is noise/spike at Rising/Falling edge of Output 
*	2. Operating Current and Shutdown Current 
*
* C. Application Notes
*   1. The parameter TEMP_AMB  has been used to indicate the ambient temperature
*      in Degree Celsius.
*
*****************************************************************************
.SUBCKT TPS27SA08C-Q1_TRANS DIA_EN EN GND LATCH NC_0 NC_1 VBB SEL1 SEL2 SNS ST TJ
+  VOUT_0 VOUT_1 VOUT_2 VOUT_3 VOUT_4 VOUT_5 PARAMS: TEMP_AMB=25
E_E2         EN1_INT 0 EN GND 1
R_R6         ST GND  1MEG 
R_R4         SEL1 GND  1MEG  
V_V104         VBB N298546 0Vdc
E_E7         ST1_INT 0 ST GND 1
R_R8         LATCH GND  1MEG 
E_E5         SEL1_INT 0 SEL1 GND 1
E_E1         PWR_PAD_INT 0 VBB GND 1
R_R5         SEL2 GND  1MEG  
E_E9         LATCH_INT 0 LATCH GND 1
X_U3_U32         EN1_OK U3_N17006391 INV_BASIC_GEN PARAMS: VDD=1 VSS=0
+  VTHRESH=500E-3
X_U3_S6    U3_N16981641 0 ST GND MUX_U3_S6 
X_U3_U46         U3_N17006391 RST_RETRY1 U3_VOLT_MATCHED1 U3_N17007333
+  OR3_BASIC_GEN PARAMS: VDD=1 VSS=0 VTHRESH=500E-3
X_U3_U28         CRNT_LIMIT1 U3_N17007333 U3_N16973109 U3_CRNT_LIMIT_B1
+  SRLATCHRHP_BASIC_GEN PARAMS: VDD=1 VSS=0 VTHRESH=0.5
E_U3_ABM15         U3_N16950896 0 VALUE { IF((V(U3_N16960934)>0.5 &
+  V(DIAG_EN_OK)>0.5),V(I_SENSE_1)/5000,0)    }
X_U3_U43         U3_N16818116 U3_N16818121 U3_N16933765 OR2_BASIC_GEN PARAMS:
+  VDD=1 VSS=0 VTHRESH=500E-3
E_U3_ABM4         U3_N16818116 0 VALUE { IF((V(SEL1_OK)>0.5 & V(SEL2_OK)<0.5 &
+  V(FAULT_DETECT1)<0.5),1,0)    }
E_U3_GAIN4         U3_N16960443 0 VALUE {1 * V(EN1_OK)}
V_U3_V19         U3_N16916861 U3_N16933216 0Vdc
X_U3_S1    U3_N16933216 0 U3_N16950896 U3_N16817704 MUX_U3_S1 
X_U3_U40         U3_N16960934 U3_N16960443 D_D1
E_U3_ABM5         U3_N16818121 0 VALUE { IF((V(SEL1_OK)>0.5 & V(SEL2_OK)<0.5 &
+  V(FAULT_DETECT1)>0.5),1,0)    }
E_U3_ABM25         U3_MATCH1 0 VALUE { V(PWR_PAD_INT)-1.8    }
G_U3_G1         VBB SNS U3_N17070189 0 1
E_U3_ABM10         U3_ISNSFH 0 VALUE { 6.9m    }
X_U3_U51         U3_N17137624 OPEN_LOAD1 U3_N16981641 NOR2_BASIC_GEN PARAMS:
+  VDD=1 VSS=0 VTHRESH=500E-3
V_U3_V22         U3_N16946748 U3_N17060782 0Vdc
R_U3_R12         U3_N16960934 U3_N16960443  {70u/(0.693*1u)} 
X_U3_U45         OUT1_INT U3_MATCH1 U3_VOLT_MATCHED1 COMP_BASIC_GEN PARAMS:
+  VDD=1 VSS=0 VTHRESH=0.5
C_U3_C10         U3_N16960934 0  1u  
E_U3_E2         U3_N17075473 GND VALUE { IF(V(PWR_PAD_INT, 0)<2.5, 0,
+  IF(V(PWR_PAD_INT, 0)>=2.5 & V(PWR_PAD_INT, 0)<=5.9, V(PWR_PAD_INT, 0), 5.9)) }
X_U3_S4    U3_N17060782 0 U3_ISNSFH U3_N16817704 MUX_U3_S4 
V_U3_V21         U3_N16933765 U3_N16817937 0Vdc
X_U3_S3    U3_N16817937 0 U3_N17084805 U3_N16817704 MUX_U3_S3 
X_U3_U44         U3_N16973109 OPEN_LOAD1 U3_N16835773 OR2_BASIC_GEN PARAMS:
+  VDD=1 VSS=0 VTHRESH=500E-3
X_U3_U42         U3_N16973109 CRNT_LIMIT1 U3_N17137624 AND2_BASIC_GEN PARAMS:
+  VDD=1 VSS=0 VTHRESH=500E-3
X_U3_U19         SNS U3_N17075473 D_D
R_U3_R9         GND ST  5e6 
E_U3_ABM7         U3_N16869959 0 VALUE { IF((V(SEL1_OK)<0.5 & V(SEL2_OK)<0.5 &
+  V(FAULT_DETECT1)>0.5),1,0)    }
R_U3_R11         U3_N17070189 U3_N17180545  2  
E_U3_ABM24         U3_N17084805 0 VALUE { V(PWR_PAD_INT)*86.7u    }
C_U3_C9         U3_N17070189 0  1u  
R_U3_R14         FAULT_DETECT1 U3_N17111950  100 
X_U3_U30         U3_N16869959 0 U3_N16946748 OR2_BASIC_GEN PARAMS: VDD=1 VSS=0
+  VTHRESH=500E-3
E_U3_ABM2         U3_N16916861 0 VALUE { IF((V(SEL1_OK)<0.5 & V(SEL2_OK)<0.5 &
+  V(FAULT_DETECT1)<0.5),1,0)    }
C_U3_C12         FAULT_DETECT1 0  1n   
E_U3_GAIN2         U3_N17111950 0 VALUE {1 * V(U3_N16835773)}
E_U3_ABM11         U3_N17180545 0 VALUE { IF(V(DIAG_EN_OK)>0.5 &
+  V(UVLO_OK)>0.5, V(U3_N16817704), 0)    }
E_E4         DIA_EN_INT 0 DIA_EN GND 1
X_U5_U57         U5_N16880824 U5_N242181 U5_N16896770 OR2_BASIC_GEN PARAMS:
+  VDD=1 VSS=0 VTHRESH=500E-3
X_U5_U52         U5_N242181 U5_N242709 U5_OFF_ALL OR2_BASIC_GEN PARAMS: VDD=1
+  VSS=0 VTHRESH=500E-3
X_U5_U37         STANDBY U5_N16848053 U5_N16859416 N16837690
+  SRLATCHRHP_BASIC_GEN PARAMS: VDD=1 VSS=0 VTHRESH=0.5
X_U5_U39         U5_N229254 U5_OFF_ALL U5_N249389 N243278 SRLATCHRHP_BASIC_GEN
+  PARAMS: VDD=1 VSS=0 VTHRESH=0.5
X_U5_U31         DIAG_EN_OK U5_N232548 INV_BASIC_GEN PARAMS: VDD=1 VSS=0
+  VTHRESH=500E-3
X_U5_U54         U5_N16859416 U5_RST_DLY U5_N16880824 AND2_BASIC_GEN PARAMS:
+  VDD=1 VSS=0 VTHRESH=500E-3
X_U5_U49         EN1_OK U5_STDBY_DONE U5_N239695 AND2_BASIC_GEN PARAMS: VDD=1
+  VSS=0 VTHRESH=500E-3
X_U5_U46         U5_N234689 U5_N223047 U5_N235225 AND2_BASIC_GEN PARAMS: VDD=1
+  VSS=0 VTHRESH=500E-3
X_U5_U56         U5_STDBY_DONE U5_RST_DLY U5_N16848053 OR2_BASIC_GEN PARAMS:
+  VDD=1 VSS=0 VTHRESH=500E-3
G_U5_ABM2I1         0 U5_N16842875 VALUE { IF(V(U5_N16896770)>0.5, -1,
+  IF(V(STANDBY)>0.5, 25n, 0))    }
X_U5_U36         UVLO_OK U5_N242181 INV_BASIC_GEN PARAMS: VDD=1 VSS=0
+  VTHRESH=500E-3
X_U5_U55         U5_N16847452 U5_N16848053 STANDBY N16848617
+  SRLATCHRHP_BASIC_GEN PARAMS: VDD=1 VSS=0 VTHRESH=0.5
X_U5_U30         EN1_OK U5_N231225 INV_BASIC_GEN PARAMS: VDD=1 VSS=0
+  VTHRESH=500E-3
X_U5_U41         UVLO_OK EN1_OK U5_ALL_OK AND2_BASIC_GEN PARAMS: VDD=1 VSS=0
+  VTHRESH=500E-3
X_U5_U221         UVLO_OK U5_N231225 U5_N222411 AND2_BASIC_GEN PARAMS: VDD=1
+  VSS=0 VTHRESH=500E-3
X_U5_U50         U5_ALL_OK U5_N239695 U5_N229337 OR2_BASIC_GEN PARAMS: VDD=1
+  VSS=0 VTHRESH=500E-3
X_U5_U38         U5_DIAG U5_N227778 U5_N227618 OR2_BASIC_GEN PARAMS: VDD=1
+  VSS=0 VTHRESH=500E-3
X_U5_U15         U5_N227618 U5_N222837 ONE_SHOT PARAMS:  T=1.1k  
R_U5_R16         U5_N249389 U5_N234689  {1.1u/(0.693*1n)}  
X_U5_U216         STANDBY U5_N16875248 STDBY_DLY N16875274 SRLATCHRHP_BASIC_GEN
+  PARAMS: VDD=1 VSS=0 VTHRESH=0.5
X_U5_U48         U5_STDBY_DONE U5_DIAG U5_N227778 AND2_BASIC_GEN PARAMS: VDD=1
+  VSS=0 VTHRESH=500E-3
C_U5_C29         U5_N16842875 0  1n  
X_U5_U35         U5_N222411 DIAG_EN_OK U5_DIAG AND2_BASIC_GEN PARAMS: VDD=1
+  VSS=0 VTHRESH=500E-3
X_U5_U32         U5_N222837 U5_OFF_ALL U5_DIAG_ST N222871 SRLATCHRHP_BASIC_GEN
+  PARAMS: VDD=1 VSS=0 VTHRESH=0.5
X_U5_U222         EN1_OK DIAG_EN_OK U5_N242709 NOR2_BASIC_GEN PARAMS: VDD=1
+  VSS=0 VTHRESH=500E-3
X_U5_U47         U5_N235225 U5_N235331 U5_N16847452 OR2_BASIC_GEN PARAMS: VDD=1
+  VSS=0 VTHRESH=500E-3
X_U5_U217         U5_N16875271 U5_N16875248 ONE_SHOT PARAMS:  T=1.1k  
X_U5_U33         0 U5_N16842875 D_D
C_U5_C28         U5_N234689 0  1n  
X_U5_U45         U5_N223047 U5_N247244 U5_N235331 AND2_BASIC_GEN PARAMS: VDD=1
+  VSS=0 VTHRESH=500E-3
X_U5_U220         U5_ALL_OK U5_N16875271 INV_BASIC_GEN PARAMS: VDD=1 VSS=0
+  VTHRESH=500E-3
R_U5_R15         U5_DIAG_ST U5_N247244  {1.5u/(0.693*1n)}  
X_U5_U53         U5_DIAG_ST U5_N249389 U5_RST_DLY OR2_BASIC_GEN PARAMS: VDD=1
+  VSS=0 VTHRESH=500E-3
X_U5_U44         U5_N232548 U5_N222411 U5_N223047 AND2_BASIC_GEN PARAMS: VDD=1
+  VSS=0 VTHRESH=500E-3
X_U5_U18         U5_N229337 U5_N229254 ONE_SHOT PARAMS:  T=1.1k  
X_U5_U16         U5_N16842875 U5_STDBY_DONE ONE_SHOT PARAMS:  T=1.1k  
C_U5_C27         U5_N247244 0  1n  
R_R2         DIA_EN GND  1MEG 
X_U1_U1_U38         U1_U1_CL1 U1_U1_N16848427 U1_U1_N16847911
+  U1_U1_CRNT_LIMIT_N1 SRLATCHSHP_BASIC_GEN PARAMS: VDD=1 VSS=0 VTHRESH=0.5
R_U1_U1_R17         U1_U1_OPEN_OUT_1 U1_U1_N16848046  14.43  
C_U1_U1_C28         U1_U1_N16848046 0  1u IC=0  
X_U1_U1_U33         LATCH_OK U1_U1_N16847917 INV_BASIC_GEN PARAMS: VDD=1 VSS=0
+  VTHRESH=500E-3
V_U1_U1_V6         U1_U1_N16848334 0 5
X_U1_U1_U39         U1_U1_N16847888 CRNT_LIMIT1 D_D1
X_U1_U1_U35         U1_U1_N16847917 U1_U1_N16848108 U1_U1_N16847904
+  AND2_BASIC_GEN PARAMS: VDD=1 VSS=0 VTHRESH=500E-3
E_U1_U1_ABM1         U1_U1_N16848321 0 VALUE { V(I_SENSE_1)/5000    }
G_U1_U1_ABMII1         U1_U1_N16848334 U1_VLIM1 VALUE { V(U1_U1_N16848321)    }
E_U1_U1_GAIN2         U1_U1_N16847888 0 VALUE {1 * V(U1_U1_N16847911)}
V_U1_U1_V11         U1_U1_N16848383 0 3
R_U1_U1_R13         0 U1_VLIM1  100 
X_U1_U1_U1         OUT1_INT U1_U1_N16848383 U1_U1_OPEN_OUT_1 COMP_BASIC_GEN
+  PARAMS: VDD=1 VSS=0 VTHRESH=0.5
E_U1_U1_ABM26         U1_U1_N16848091 0 VALUE { {IF(ILIM_LEVEL>0.5, 1.6, 0.4)} 
+    }
E_U1_U1_GAIN1         U1_U1_N16847963 0 VALUE {1 * V(EN1_OK)}
R_U1_U1_R19         U1_U1_N16847888 CRNT_LIMIT1  {10u/(0.693*1u)} 
G_U1_U1_ABMII3         0 U1_U1_N16847847 VALUE { IF(V(RETRY_WINDOW) >0.5, 2.5u
+  ,0)    }
X_U1_U1_U36         U1_U1_N16847963 U1_U1_N16847958 D_D1
C_U1_U1_C30         CRNT_LIMIT1 0  1u IC=0 
E_U1_U1_ABM28         U1_ILIM1 0 VALUE { {IF(ILIM_LEVEL>0.5, 80, 20)}    }
C_U1_U1_C25         U1_U1_N16847847 0  5n IC=0  
X_U1_U1_U37         U1_U1_N16847958 U1_U1_N16847997 INV_BASIC_GEN PARAMS: VDD=1
+  VSS=0 VTHRESH=500E-3
X_U1_U1_U5         U1_VLIM1 U1_VLIM_TH U1_U1_CL1 COMP_BASIC_GEN PARAMS: VDD=1
+  VSS=0 VTHRESH=0.5
X_U1_U1_U10         U1_U1_N16847847 U1_U1_N16848222 U1_U1_N16848108
+  COMP_BASIC_GEN PARAMS: VDD=1 VSS=0 VTHRESH=0.5
X_U1_U1_U34         U1_U1_N16847997 DIAG_EN_OK U1_U1_N16848046 OPEN_LOAD1
+  AND3_BASIC_GEN PARAMS: VDD=1 VSS=0 VTHRESH=500E-3
V_U1_U1_V3         U1_U1_N16848222 0 1
X_U1_U1_S4    U1_U1_N16857443 0 U1_U1_N16847847 0 CURLIM_OPENLD1_U1_U1_S4 
R_U1_U1_R8         U1_U1_N16847963 U1_U1_N16847958  700 
C_U1_U1_C7         U1_U1_N16847958 0  1u IC=0  
E_U1_U1_ABM27         U1_VLIM_TH 0 VALUE { IF( V(U1_CRNT_FB1)>0.5,  
+ +V(U1_U1_N16848091)/2, V(U1_U1_N16848091))   }
X_U1_U1_U40         RETRY_WINDOW U1_U1_N16857443 INV_BASIC_GEN PARAMS: VDD=1
+  VSS=0 VTHRESH=500E-3
X_U1_U1_U41         U1_U1_N16847917 U1_U1_N16856103 ONE_SHOT PARAMS:  T=1000  
X_U1_U1_U42         U1_U1_N16856103 U1_U1_N16847904 U1_U1_N16848427
+  OR2_BASIC_GEN PARAMS: VDD=1 VSS=0 VTHRESH=500E-3
C_U1_U2_C66         U1_U2_N18817813 0  1u IC=1  
E_U1_U2_ABM63         U1_U2_N18817500 0 VALUE { IF(V(U1_U2_RAMPCLAMP1)<0.5 &
+  V(U1_U2_SW_ON1)>0.5, 1, 0)    }
X_U1_U2_U210         U1_ALL_OK1 U1_U2_N18817611 U1_U2_N18817588 OR2_BASIC_GEN
+  PARAMS: VDD=1 VSS=0 VTHRESH=500E-3
X_U1_U2_U187         U1_U2_N18817813 U1_U2_GATE_DRV_N1 D_D1
R_U1_U2_R74         U1_U2_N18817956 U1_ALL_OK1  100  
R_U1_U2_R80         U1_U2_N18817264 U1_U2_B4_VT1  100 
V_U1_U2_V107         U1_U2_VV 0 2.02
X_U1_U2_U221         U1_U2_N18817588 THERMAL_FLT_B U1_U2_SW_OFF_N1 U1_U2_SW_ON1
+  AND3_BASIC_GEN PARAMS: VDD=1 VSS=0 VTHRESH=500E-3
X_U1_U2_U205         U1_U2_N18817570 U1_U2_N188173300 D_D
X_U1_U2_U208         U1_U2_N18817813 U1_U2_N18817611 INV_BASIC_GEN PARAMS:
+  VDD=1 VSS=0 VTHRESH=500E-3
E_U1_U2_ABM61         U1_U2_N18817738 0 VALUE { V(PWR_PAD_INT)    }
L_U1_U2_L1         U1_U2_N18817570 U1_U2_N18817782  20nH  
G_U1_U2_ABM3I3         0 U1_U2_RAMP1 VALUE { IF(V(U1_U2_SW_ON1)<0.5 &
+  V(U1_U2_SW_OFF1)<0.5,   
+ +V(U1_U2_FALLING1),  
+ +IF(V(U1_U2_SW_ON1)>0.5 & V(U1_U2_ABV_VT1)>0.5, V(U1_U2_RISING1), -4u))  }
X_U1_U2_U188         U1_U2_GATE_DRV_N1 U1_U2_N18817813 U1_U2_N18818422 0 RVAR
+  PARAMS:  RREF=1
E_U1_U2_ABM62         U1_U2_N188180351 0 VALUE { IF(V(U1_U2_SW_OFF1)<0.5 &
+  V(U1_U2_SW_ON1)>0.5, LIMIT((V(U1_U2_RAMP1)-V(OUT1_INT))*0.25m,-200u,200u), 0) 
+    }
G_U1_U2_G28         U1_U2_N18817064 U1_U2_GATE1 U1_U2_B4_VT1 0 1u
V_U1_U2_V108         U1_U2_N188173300 U1_U2_N18816874 2.1
X_U1_U2_U215         U1_U2_N18816937 U1_U2_N18816990 U1_U2_RAMPCLAMP1 N18816994
+  SRLATCHRHP_BASIC_GEN PARAMS: VDD=1 VSS=0 VTHRESH=0.5
E_U1_U2_ABM60         U1_U2_N18818545 0 VALUE { IF(V(U1_U2_SW_OFF1)<0.5 &
+  V(U1_U2_SW_ON1)<0.5 & V(U1_U2_VGS1)>1m,
+  LIMIT((V(U1_U2_RAMP1)-V(OUT1_INT))*1.3m,150u,-150u), 0)    }
L_U1_U2_L6         U1_U2_N18817693 U1_U2_N18817690  10nH  
V_U1_U2_V111         0 U1_U2_N18818296 -5.7mVdc
E_U1_U2_E55         U1_U2_VGS1 0 VALUE { V(U1_U2_N18817782, U1_U2_OUT1) }
X_U1_U2_U207         U1_U2_SW_ON1 U1_U2_N18816990 INV_BASIC_GEN PARAMS: VDD=1
+  VSS=0 VTHRESH=500E-3
X_U1_U2_U199         U1_U2_N18817813 U1_U2_N18818683 ONE_SHOT PARAMS:  T=120000
+   
X_U1_U2_U201         U1_U2_VGS1 U1_U2_VV U1_U2_N18817253 COMP_BASIC_GEN PARAMS:
+  VDD=1 VSS=0 VTHRESH=0.5
X_U1_U2_F4    U1_U2_OUT1 VOUT_0 N298546 GND DRIVER1_U1_U2_F4 
X_U1_U2_U193         U1_U2_N18817371 N298546 D_D1
G_U1_U2_ABMII45         U1_U2_GATE1 U1_U2_OUT1 VALUE { IF(V(TSD)>0.5,10m,0)   
+  }
L_U1_U2_L7         U1_U2_N18829288 U1_U2_N18816874  1nH  
X_U1_U2_U200         U1_U2_N18818683 EN1_OK U1_U2_N18818701 NOR2_BASIC_GEN
+  PARAMS: VDD=1 VSS=0 VTHRESH=500E-3
X_U1_U2_S13    U1_U2_N18817500 0 U1_U2_N18817696 U1_U2_N18817693
+  DRIVER1_U1_U2_S13 
X_U1_U2_U220         U1_U2_OUT1 U1_U2_GATE1 D_D
X_U1_U2_U209         U1_ALL_OK1 U1_U2_N18817291 U1_U2_VO_GLTH1 AND2_BASIC_GEN
+  PARAMS: VDD=1 VSS=0 VTHRESH=500E-3
M_U1_U2_M13         U1_U2_N18817522 U1_U2_N18817782 U1_U2_OUT1 U1_U2_OUT1
+  NMOS01_TPS2HA08           
C_U1_U2_C72         U1_U2_N18828068 VOUT_0  1n 
E_U1_U2_E56         U1_U2_FALLING1 0 TABLE { V(PWR_PAD_INT, 0) } 
+ ( (0, 0) (3,-144u) (6,-332u) (8, -345.6u)(13.5, -444u)(18, -566u)(28,
+  -738.6u)(36, -812u) )
E_U1_U2_E59         OUT1_INT 0 VOUT_0 GND 1
X_U1_U2_U203         U1_ALL_OK1 U1_U2_GATE_DRV_N1 INV_BASIC_GEN PARAMS: VDD=1
+  VSS=0 VTHRESH=500E-3
X_U1_U2_U214         U1_U2_SW_OFF1 U1_U2_SW_OFF_N1 INV_BASIC_GEN PARAMS: VDD=1
+  VSS=0 VTHRESH=500E-3
X_U1_U2_U206         N298546 U1_U2_N18817112 D_D
C_U1_U2_Cgs11         U1_U2_N18817782 U1_U2_OUT1  672p IC=0 
E_U1_U2_E58         U1_U2_N18817401 U1_U2_N18817690 VALUE {
+  IF(V(U1_U2_N18817401, VOUT_0)>0, -V(U1_U2_N18817401, VOUT_0), 0) }
E_U1_U2_E54         U1_U2_N18818422 0 TABLE { V(PWR_PAD_INT, 0) } 
+ ( (3, 12) (6,65) (8,78)(13.5,75)(18,76)(28,85)(36,82) )
E_U1_U2_E60         U1_U2_N18829288 GND N298546 GND 1
V_U1_U2_V109         U1_U2_N18817112 GND 40
E_U1_U2_GAIN15         U1_U2_N18817264 0 VALUE {48 * V(U1_U2_VO_GLTH1)}
L_U1_U2_L4         U1_U2_N18828068 GND  0.01nH  
X_U1_U2_U196         U1_U2_N18818296 U1_U2_RAMP1 D_D
X_U1_U2_U212         U1_U2_SW_ON1 U1_U2_N18816919 ONE_SHOT PARAMS:  T=20k  
C_U1_U2_C71         0 U1_U2_N18818548  1f IC=0 
V_U1_U2_V105         VOUT_0 U1_U2_N18817371 0.6
X_U1_U2_U222         UVLO_OK EN1_OK U1_U2_N18818280 U1_U2_N18817956
+  AND3_BASIC_GEN PARAMS: VDD=1 VSS=0 VTHRESH=500E-3
C_U1_U2_C69         0 U1_U2_RAMP1  1n IC=0 
X_U1_U2_U198         U1_U2_N18818701 U1_U2_N18817813 U1_U2_N18818729
+  AND2_BASIC_GEN PARAMS: VDD=1 VSS=0 VTHRESH=500E-3
E_U1_U2_E57         U1_U2_RISING1 0 TABLE { V(PWR_PAD_INT, 0) } 
+ ( (0, 0) (3,90u) (6,249u) (8, 275u)(13.5, 356u)(18, 433.6u)(28, 523.7u)(36,
+  586.7u) )
E_U1_U2_E61         U1_U2_N18817748 GND U1_U2_RAMP1 0 1
V_U1_U2_V103         U1_U2_N18817083 0 0.1
R_U1_U2_R82         U1_U2_N18818545 U1_U2_N18818548  1u  
X_U1_U2_U204         U1_U2_N188177901 VOUT_0 D_D
V_U1_U2_V112         U1_U2_N18817570 U1_U2_GATE1 0
V_U1_U2_V110         N298546 U1_U2_N188177901 53
X_U1_U2_U195         U1_U2_RAMP1 U1_U2_N18817738 D_D1
C_U1_U2_C68         0 U1_U2_N18818134  1f IC=0  
X_U1_U2_U185         OUT1_INT U1_U2_N18817083 U1_U2_N18816955 COMP_BASIC_GEN
+  PARAMS: VDD=1 VSS=0 VTHRESH=0.5
G_U1_U2_ABM2I4         U1_U2_GATE1 U1_U2_OUT1 VALUE {
+  LIMIT((V(U1_VLIM1)-V(U1_VLIM_TH))*100m, 0,1m)    }
R_U1_U2_R78         U1_U2_N188180351 U1_U2_N18818134  1u 
G_U1_U2_G30         U1_U2_OUT1 U1_U2_GATE1 U1_U2_N18818548 0 1
X_U1_U2_U197         U1_U2_N18818729 U1_U2_N18818729 U1_U2_SW_OFF1
+  OR2_BASIC_GEN PARAMS: VDD=1 VSS=0 VTHRESH=500E-3
X_U1_U2_F5    U1_U2_N18817748 U1_U2_N18817401 N298546 GND DRIVER1_U1_U2_F5 
X_U1_U2_U211         VOUT_0 U1_U2_N18817696 D_D
C_U1_U2_C70         0 U1_U2_B4_VT1  1p IC=0 
X_U1_U2_U186         U1_U2_N18816919 U1_U2_N18816955 U1_U2_N18816937
+  AND2_BASIC_GEN PARAMS: VDD=1 VSS=0 VTHRESH=500E-3
X_U1_U2_U216         U1_U2_OUT1 U1_U2_GATE1 D_D
X_U1_U2_U202         U1_U2_N18817253 U1_U2_GATE_DRV_N1 U1_U2_ABV_VT1
+  U1_U2_N18817291 SRLATCHRHP_BASIC_GEN PARAMS: VDD=1 VSS=0 VTHRESH=0.5
C_U1_U2_C65         0 U1_ALL_OK1  0.1n IC=0 
E_U1_U2_E62         U1_U2_N18817048 U1_U2_N18817522 VRON 0 1
V_U1_U2_V104         U1_U2_N18817064 U1_U2_OUT1 1
G_U1_U2_G29         U1_U2_N18817064 U1_U2_GATE1 U1_U2_N18818134 0 1
X_U1_U2_U218         STANDBY U1_U2_N18818280 INV_BASIC_GEN PARAMS: VDD=1 VSS=0
+  VTHRESH=500E-3
X_U1_U2_S14    U1_U2_EN2_OK 0 VOUT_0 GND DRIVER1_U1_U2_S14 
G_U1_U2_ABMII44         U1_U2_GATE1 U1_U2_OUT1 VALUE { IF(V(U1_U2_SW_OFF1)>0.5
+  & V(U1_U2_VGS1)>1m,50u,0)    }
X_U1_U2_H13    U1_U2_N18816874 U1_U2_N18817048 I_SENSE_1 0 DRIVER1_U1_U2_H13 
E_U1_U4_ABM36         U1_U4_N657517 0 VALUE { IF(V(U1_U4_VC_CLF1)>3.2, 1, 0)   
+  }
X_U1_U4_U22         U1_U4_VC_CLF1 U1_U4_N6577010 D_D
X_U1_U4_U31         CRNT_LIMIT1 U1_U4_N656941 INV_BASIC_GEN PARAMS: VDD=1 VSS=0
+  VTHRESH=500E-3
X_U1_U4_S4    U1_U4_N656991 0 U1_U4_N658019 0 CURNT_FOLDBK1_U1_U4_S4 
X_U1_U4_U55         U1_U4_N657501 STANDBY U1_U4_DEVICE_RST OR2_BASIC_GEN
+  PARAMS: VDD=1 VSS=0 VTHRESH=500E-3
V_U1_U4_V4         U1_U4_N6577010 0 4Vdc
E_U1_U4_ABM38         U1_U4_N658001 0 VALUE { IF( V(FAULT_DETECT1)>0.5,  
+ +V(U1_ALL_OK1), 0)   }
R_U1_U4_R14         RST_RETRY1 U1_U4_N657121  150 
X_U1_U4_U25         U1_U4_N657517 U1_U4_DEVICE_RST U1_CRNT_FB1 N657579
+  SRLATCHSHP_BASIC_GEN PARAMS: VDD=1 VSS=0 VTHRESH=0.5
C_U1_U4_C12         RST_RETRY1 0  1u IC=0 
G_U1_U4_ABMII2         U1_U4_N657523 U1_U4_VC_CLF1 VALUE { V(U1_U4_CUR1)    }
X_U1_U4_U46         U1_U4_N657121 RST_RETRY1 D_D1
V_U1_U4_V3         U1_U4_N657523 0 5Vdc
X_U1_U4_U56         U1_CRNT_FB1 RST_RETRY1 U1_U4_DEVICE_RST U1_U4_N657413
+  OR3_BASIC_GEN PARAMS: VDD=1 VSS=0 VTHRESH=500E-3
X_U1_U4_U18         U1_U4_N658001 U1_U4_N656859 ONE_SHOT PARAMS:  T=350000  
X_U1_U4_U54         U1_U4_N656973 RST_RETRY1 U1_U4_N656991 OR2_BASIC_GEN
+  PARAMS: VDD=1 VSS=0 VTHRESH=500E-3
G_U1_U4_ABMII3         0 U1_U4_N658019 VALUE { IF(V(U1_U4_N656859) >0.5, 16.67u
+  ,0)    }
X_U1_U4_U34         U1_U4_N656859 U1_U4_N656901 INV_BASIC_GEN PARAMS: VDD=1
+  VSS=0 VTHRESH=500E-3
X_U1_U4_U20         U1_U4_N656901 U1_U4_N656973 ONE_SHOT PARAMS:  T=1.1k  
C_U1_U4_C25         U1_U4_N658019 0  5n IC=0
C_U1_U4_C2         U1_U4_VC_CLF1 0  1u IC=0 
X_U1_U4_U52         EN1_OK UVLO_OK U1_U4_N657501 NAND2_BASIC_GEN PARAMS: VDD=1
+  VSS=0 VTHRESH=500E-3
X_U1_U4_U10         U1_U4_N658019 U1_U4_N658097 U1_U4_N656961 COMP_BASIC_GEN
+  PARAMS: VDD=1 VSS=0 VTHRESH=0.5
X_U1_U4_U19         U1_U4_N656967 U1_U4_N657121 ONE_SHOT PARAMS:  T=1.1k  
X_U1_U4_U29         U1_U4_N656941 U1_U4_N656961 U1_U4_N656967 AND2_BASIC_GEN
+  PARAMS: VDD=1 VSS=0 VTHRESH=500E-3
X_U1_U4_S6    U1_U4_N657413 0 U1_U4_VC_CLF1 0 CURNT_FOLDBK1_U1_U4_S6 
V_U1_U4_V5         U1_U4_N658097 0 1
E_U1_U4_ABM37         U1_U4_N672914 0 VALUE { {IF(FOLDBACK>0.5, V(CRNT_LIMIT1),
+  0)}    }
X_U1_U4_U59         U1_U4_N672914 U1_U4_N673117 U1_U4_CUR1 AND2_BASIC_GEN
+  PARAMS: VDD=1 VSS=0 VTHRESH=500E-3
X_U1_U4_U60         U1_U4_N672914 U1_U4_N673117 INV_DELAY_BASIC_GEN PARAMS:
+  VDD=1 VSS=0 VTHRESH=0.5 DELAY=1u
E_E6         SEL2_INT 0 SEL2 GND 1
R_R9         0 NC_1  1000k  
R_R10         0 NC_0  1000k 
V_U2_V3         U2_N5294513 0 250m
V_U2_V6         U2_N229700 0 1.8
V_U2_V4         U2_N529529 0 1.8
X_U2_S1    STDBY_DLY 0 U2_N529839 EN1_OK POWER_UP_U2_S1 
X_U2_U9         SEL1_INT U2_N529345 U2_N5292953 U2_N529795 COMPHYS_BASIC_GEN
+  PARAMS: VDD=1 VSS=0 VTHRESH=0.5
R_U2_R21         U2_N529795 SEL1_OK  14.43 
X_U2_U1         PWR_PAD_INT U2_N229598 U2_N2295123 U2_N520995 COMPHYS_BASIC_GEN
+  PARAMS: VDD=1 VSS=0 VTHRESH=0.5
V_U2_V11         U2_N5292953 0 250m
V_U2_Vuv_hys         U2_N2295123 0 200m
V_U2_V12         U2_N529345 0 1.8
V_U2_V2         U2_N229598 0 2.7
X_U2_U10         SEL2_INT U2_N529663 U2_N5296133 U2_N529883 COMPHYS_BASIC_GEN
+  PARAMS: VDD=1 VSS=0 VTHRESH=0.5
R_U2_R20         U2_N522418 LATCH_OK  14.43 
R_U2_R18         U2_N520995 UVLO_OK  14.43 
X_U2_U6         LATCH_INT U2_N229416 U2_N2293383 U2_N522418 COMPHYS_BASIC_GEN
+  PARAMS: VDD=1 VSS=0 VTHRESH=0.5
R_U2_R23         U2_N529883 SEL2_OK  14.43 
V_U2_V13         U2_N5296133 0 250m
R_U2_R19         U2_N522261 DIAG_EN_OK  14.43 
C_U2_C29         UVLO_OK 0  1u IC=0 
C_U2_C32         SEL1_OK 0  1u IC=0 
V_U2_V9         U2_N2293383 0 250m
C_U2_C31         LATCH_OK 0  1u IC=0 
V_U2_V14         U2_N529663 0 1.8
C_U2_C30         DIAG_EN_OK 0  1u IC=0 
V_U2_V10         U2_N229416 0 1.8
X_U2_U4         DIA_EN_INT U2_N229700 U2_N2296343 U2_N522261 COMPHYS_BASIC_GEN
+  PARAMS: VDD=1 VSS=0 VTHRESH=0.5
C_U2_C33         EN1_OK 0  1u IC=0  
X_U2_U2         EN1_INT U2_N529529 U2_N5294513 U2_N529839 COMPHYS_BASIC_GEN
+  PARAMS: VDD=1 VSS=0 VTHRESH=0.5
C_U2_C34         SEL2_OK 0  1u IC=0  
V_U2_V5         U2_N2296343 0 250m
C_U7_C5         U7_N16632389 U7_N16632403  19.04m  
X_U7_U43         RETRY_WINDOW U7_N16642936 INV_BASIC_GEN PARAMS: VDD=1 VSS=0
+  VTHRESH=500E-3
X_U7_U7         U7_N16640962 U7_N16641045 N16641089 THERMAL_FLT_B
+  SRLATCHRHP_BASIC_GEN PARAMS: VDD=1 VSS=0 VTHRESH=0.5
R_U7_R3         U7_N16632361 U7_N16632375  0.388271163855059  
V_U7_V1         U7_N16639066 0 159
C_U7_C9         U7_N16632445 U7_N16632459  1.498  
C_U7_C7         U7_N16632417 U7_N16632431  127.7m  
R_U7_R4         U7_N16632375 U7_N16632389  0.531845041495099  
V_U7_TAMB         U7_N16632501 0 {Temp_Amb}
X_U7_U44         U7_N16642936 U7_N16642942 ONE_SHOT PARAMS:  T=500  
X_U7_U42         U7_N16642694 U7_N16642734 U7_N16641045 OR2_BASIC_GEN PARAMS:
+  VDD=1 VSS=0 VTHRESH=500E-3
X_U7_U2         U7_TJ_HIT RETRY_WINDOW ONE_SHOT PARAMS:  T=2050000  
R_U7_R6         U7_N16632403 U7_N16632417  2.79783483303026  
E_U7_ABM1         VRON 0 VALUE {
+  (0.0002*V(TJ)*V(TJ)+0.0226*V(TJ)+8.9041)*V(I_SENSE_1)*1m    }
C_U7_C4         U7_N16632375 U7_N16632389  15.89m  
R_U7_R10         U7_N16632459 U7_N16632501  8.69552492886403  
E_U7_ABM2         TSD 0 VALUE { if( V(TJ)>160-(20*V(TSD)),1,0)    }
X_U7_U33         LATCH_OK U7_N16642680 INV_BASIC_GEN PARAMS: VDD=1 VSS=0
+  VTHRESH=500E-3
R_U7_R9         U7_N16632445 U7_N16632459  4.66358459456826  
R_U7_R2         U7_N16632347 U7_N16632361  0.0288898485186857  
G_U7_ABM3I1         0 TJ VALUE { (V(PWR_PAD_INT)-V(OUT1_INT))*V(I_SENSE_1)    }
R_U7_R8         U7_N16632431 U7_N16632445  4.28683265206721  
X_U7_U1         TJ U7_N16639066 U7_TJ_HIT COMP_BASIC_GEN PARAMS: VDD=1 VSS=0
+  VTHRESH=0.5
X_U7_U4         TSD U7_N16640962 ONE_SHOT PARAMS:  T=500  
R_U7_R7         U7_N16632417 U7_N16632431  3.55811727040722  
C_U7_C8         U7_N16632431 U7_N16632445  232.3m  
C_U7_C1         TJ U7_N16632347  0.4066  
X_U7_U35         U7_N16642680 U7_N16642942 U7_N16642734 AND2_BASIC_GEN PARAMS:
+  VDD=1 VSS=0 VTHRESH=500E-3
X_U7_U41         U7_N16642680 U7_N16642694 ONE_SHOT PARAMS:  T=500  
C_U7_C6         U7_N16632403 U7_N16632417  49.41m  
C_U7_C2         U7_N16632347 U7_N16632361  2.961m  
C_U7_C3         U7_N16632361 U7_N16632375  2.228m  
R_U7_R1         TJ U7_N16632347  5.1018581996957  
C_U7_C10         U7_N16632459 U7_N16632501  9.493  
R_U7_R5         U7_N16632389 U7_N16632403  1.94373424375768  
R_R1         EN GND  1MEG 
.PARAM  foldback=1 ilim_level=0
.ENDS TPS27SA08C-Q1_TRANS
*$
.subckt MUX_U3_S6 1 2 3 4  
S_U3_S6         3 4 1 2 _U3_S6
RS_U3_S6         1 2 1G
.MODEL         _U3_S6 VSWITCH Roff=5e6 Ron=1m Voff=0.9 Von=0.1
.ends MUX_U3_S6
*$
.subckt MUX_U3_S1 1 2 3 4  
S_U3_S1         3 4 1 2 _U3_S1
RS_U3_S1         1 2 1G
.MODEL         _U3_S1 VSWITCH Roff=1e7 Ron=1m Voff=0.1 Von=0.9
.ends MUX_U3_S1
*$
.subckt MUX_U3_S4 1 2 3 4  
S_U3_S4         3 4 1 2 _U3_S4
RS_U3_S4         1 2 1G
.MODEL         _U3_S4 VSWITCH Roff=1e7 Ron=1m Voff=0.1V Von=0.9
.ends MUX_U3_S4
*$
.subckt MUX_U3_S3 1 2 3 4  
S_U3_S3         3 4 1 2 _U3_S3
RS_U3_S3         1 2 1G
.MODEL         _U3_S3 VSWITCH Roff=1e7 Ron=1m Voff=0.1 Von=0.9
.ends MUX_U3_S3
*$
.subckt CURLIM_OPENLD1_U1_U1_S4 1 2 3 4  
S_U1_U1_S4         3 4 1 2 _U1_U1_S4
RS_U1_U1_S4         1 2 1G
.MODEL         _U1_U1_S4 VSWITCH Roff=1e7 Ron=1m Voff=0.1V Von=0.9V
.ends CURLIM_OPENLD1_U1_U1_S4
*$
.subckt DRIVER1_U1_U2_F4 1 2 3 4  
F_U1_U2_F4         3 4 VF_U1_U2_F4 1
VF_U1_U2_F4         1 2 0V
.ends DRIVER1_U1_U2_F4
*$
.subckt DRIVER1_U1_U2_S13 1 2 3 4  
S_U1_U2_S13         3 4 1 2 _U1_U2_S13
RS_U1_U2_S13         1 2 1G
.MODEL         _U1_U2_S13 VSWITCH Roff=1e5 Ron=1u Voff=0.1 Von=0.9
.ends DRIVER1_U1_U2_S13
*$
.subckt DRIVER1_U1_U2_F5 1 2 3 4  
F_U1_U2_F5         3 4 VF_U1_U2_F5 1
VF_U1_U2_F5         1 2 0V
.ends DRIVER1_U1_U2_F5
*$
.subckt DRIVER1_U1_U2_S14 1 2 3 4  
S_U1_U2_S14         3 4 1 2 _U1_U2_S14
RS_U1_U2_S14         1 2 1G
.MODEL         _U1_U2_S14 VSWITCH Roff=1e7 Ron=10K Voff=0.1 Von=0.9
.ends DRIVER1_U1_U2_S14
*$
.subckt DRIVER1_U1_U2_H13 1 2 3 4  
H_U1_U2_H13         3 4 VH_U1_U2_H13 1
VH_U1_U2_H13         1 2 0V
.ends DRIVER1_U1_U2_H13
*$
.subckt CURNT_FOLDBK1_U1_U4_S4 1 2 3 4  
S_U1_U4_S4         3 4 1 2 _U1_U4_S4
RS_U1_U4_S4         1 2 1G
.MODEL         _U1_U4_S4 VSWITCH Roff=1e7 Ron=1m Voff=0.1V Von=0.9V
.ends CURNT_FOLDBK1_U1_U4_S4
*$
.subckt CURNT_FOLDBK1_U1_U4_S6 1 2 3 4  
S_U1_U4_S6         3 4 1 2 _U1_U4_S6
RS_U1_U4_S6         1 2 1G
.MODEL         _U1_U4_S6 VSWITCH Roff=1G Ron=1m Voff=0.1V Von=0.9V
.ends CURNT_FOLDBK1_U1_U4_S6
*$
.subckt POWER_UP_U2_S1 1 2 3 4  
S_U2_S1         3 4 1 2 _U2_S1
RS_U2_S1         1 2 1G
.MODEL         _U2_S1 VSWITCH Roff=14.33 Ron=36 Voff=0.1 Von=0.9
.ends POWER_UP_U2_S1
*$
.model NMOS01_TPS2HA08 nmos
+ vto=2.02
+ kp=156250
+ lambda=0.001
*$
.subckt d_d1 1 2
d1 1 2 dd1
.model dd1 d
+ is=1e-015
+ tt=1e-011
+ rs=0.05
+ n=0.1
.ends d_d1
*$
.subckt d_d 1 2
d1 1 2 dd
.model dd d
+ is=1e-015
+ n=0.01
+ tt=1e-011
.ends d_d
*$
.SUBCKT RVAR 101 102 201 202 PARAMS: RREF=1
rin 201 202 1G
r 301 0 {rref}
fcopy 0 301 vsense 1
eout 101 106 poly(2) 201 202 301 0 0 0 0 0 1
vsense 106 102 0
.ENDS RVAR
*$
.SUBCKT INV_BASIC_GEN A  Y PARAMS: VDD=1 VSS=0 VTHRESH=0.5 
E_ABMGATE    YINT 0 VALUE {{IF(V(A) > {VTHRESH} , 
+ {VSS},{VDD})}}
RINT YINT Y 1
CINT Y 0 1n
.ENDS INV_BASIC_GEN
*$
.SUBCKT OR3_BASIC_GEN A B C Y PARAMS: VDD=1 VSS=0 VTHRESH=0.5 
E_ABMGATE    YINT 0 VALUE {{IF(V(A) > {VTHRESH}  |  
+ V(B) > {VTHRESH} |
+ V(C) > {VTHRESH},{VDD},{VSS})}}
RINT YINT Y 1
CINT Y 0 1n
.ENDS OR3_BASIC_GEN
*$
.SUBCKT SRLATCHRHP_BASIC_GEN S R Q QB PARAMS: VDD=1 VSS=0 VTHRESH=0.5 
GQ 0 Qint VALUE = {IF(V(R) > {VTHRESH},-5,IF(V(S)>{VTHRESH},5, 0))}
CQint Qint 0 1n
RQint Qint 0 1000MEG
D_D10 Qint MY5 D_D1
V1 MY5 0 {VDD}
D_D11 MYVSS Qint D_D1
V2 MYVSS 0 {VSS} 
EQ Qqq 0 Qint 0 1
X3 Qqq Qqqd1 BUF_BASIC_GEN PARAMS: VDD={VDD} VSS={VSS} VTHRESH={VTHRESH}
RQq Qqqd1 Q 1
EQb Qbr 0 VALUE = {IF( V(Q) > {VTHRESH}, {VSS},{VDD})}
RQb Qbr QB 1 
Cdummy1 Q 0 1n 
Cdummy2 QB 0 1n
.IC V(Qint) {VSS}
.model d_d1 d
+ is=1e-015
+ tt=1e-011
+ rs=0.05
+ n=0.01
.ENDS SRLATCHRHP_BASIC_GEN
*$
.SUBCKT OR2_BASIC_GEN A B Y PARAMS: VDD=1 VSS=0 VTHRESH=0.5 
E_ABMGATE    YINT 0 VALUE {{IF(V(A) > {VTHRESH}  |  
+ V(B) > {VTHRESH},{VDD},{VSS})}}
RINT YINT Y 1
CINT Y 0 1n
.ENDS OR2_BASIC_GEN
*$
.SUBCKT NOR2_BASIC_GEN A B Y PARAMS: VDD=1 VSS=0 VTHRESH=0.5 
E_ABMGATE    YINT 0 VALUE {{IF(V(A) > {VTHRESH}  |  
+ V(B) > {VTHRESH},{VSS},{VDD})}}
RINT YINT Y 1
CINT Y 0 1n
.ENDS NOR2_BASIC_GEN
*$
.SUBCKT COMP_BASIC_GEN INP INM Y PARAMS: VDD=1 VSS=0 VTHRESH=0.5	
E_ABM Yint 0 VALUE {IF (V(INP) > 
+ V(INM), {VDD},{VSS})}
R1 Yint Y 1
C1 Y 0 1n
.ENDS COMP_BASIC_GEN
*$
.SUBCKT AND2_BASIC_GEN A B Y PARAMS: VDD=1 VSS=0 VTHRESH=0.5 
E_ABMGATE    YINT 0 VALUE {{IF(V(A) > {VTHRESH}  &  
+ V(B) > {VTHRESH},{VDD},{VSS})}}
RINT YINT Y 1
CINT Y 0 1n
.ENDS AND2_BASIC_GEN
*$
.SUBCKT ONE_SHOT IN OUT PARAMS:  T=100
S_S1         MEAS 0 RESET2 0 S1
E_ABM1         CH 0 VALUE { IF( V(IN)>0.5 | V(OUT)>0.5,1,0)    }