*$
* TPS2H160B-Q1
*****************************************************************************
*  (C) Copyright 2015 Texas Instruments Incorporated. All rights reserved.
*****************************************************************************
** This model is designed as an aid for customers of Texas Instruments.
** TI and its licensors and suppliers make no warranties, either expressed
** or implied, with respect to this model, including the warranties of 
** merchantability or fitness for a particular purpose.  The model is
** provided solely on an "as is" basis.  The entire risk as to its quality
** and performance is with the customer
*****************************************************************************
*
** Released by: WEBENCH Design Center, Texas Instruments Inc.
* Part: TPS2H160B-Q1
* Date: 16DEC2015
* Model Type: Transient
* Simulator: PSPICE
* Simulator Version: 16.2.0.p001
* EVM Order Number: 
* EVM User's Guide:  
* Datasheet: Preliminary Draft Only Nov 2015
*
* Model Version: Final 1.00
*
*****************************************************************************
*
* Updates:
*
* Final 1.00
* Release to Web.
*
*****************************************************************************
*
* Model Usage Notes:
*
* A. Features have been modelled
*	1. Switching characteristics
*	2. Programmable current limit with external resistor 
*	3. Short circuit/Over load protection
*	4. Inductive load negative voltage clamp
*	5. Overload and short to ground detection
*	6. Open load/short to battery detection during off state 
*	7. High accurate Current Sense with external resistor
*
* B. Features haven't been modelled
*	1. Thermal shutdown and Thermal swing
*	2. Temperature dependent characteristics 
*
*****************************************************************************
.SUBCKT TPS2H160B-Q1_TRANS IN1 IN2 DIAG_EN FAULTB SEL CS CL 
+ OUT1_1 OUT1_2 VS1 VS2 OUT2_1 OUT2_2 THER NC GND
X_U3         SEL N16837807 N168377743 N16821087 COMPHYS_BASIC_GEN PARAMS: VDD=1
+  VSS=0 VTHRESH=0.5
V_V3         N168377743 0 250m
V_V4         N16837807 0 2
R_R3         NC 0  1m TC=0,0 
X_S1    CNTRL 0 CS1 CS TPS2H160B-Q1_S1 
X_S2    CNTRL 0 CS2 CS TPS2H160B-Q1_S2 
R_R1         SEL 0  175k TC=0,0 
R_R2         GND 0  1m TC=0,0 
R_R6         N16821087 N16815495  72 TC=0,0 
C_C5         0 N16815495  1u IC=0 TC=0,0 
X_U1_U1_U3         U1_U1_N16778395 U1_IN_OK U1_SWEN AND2_BASIC_GEN PARAMS:
+  VDD=1 VSS=0 VTHRESH=500E-3
R_U1_U1_R1         IN1 0  175k TC=0,0 
X_U1_U1_U1         VS1 U1_U1_N16778317 U1_U1_N167782823 U1_U1_N16778395
+  COMPHYS_BASIC_GEN PARAMS: VDD=1 VSS=0 VTHRESH=0.5
V_U1_U1_Vuv_hys         U1_U1_N167782823 0 0.5
V_U1_U1_V2         U1_U1_N16778317 0 3.7
R_U1_U1_R4         DIAG_EN 0  275k TC=0,0 
X_U1_U1_U2         IN1 U1_U1_N16778379 U1_U1_N167783383 U1_IN_OK
+  COMPHYS_BASIC_GEN PARAMS: VDD=1 VSS=0 VTHRESH=0.5
V_U1_U1_V3         U1_U1_N167783383 0 250m
X_U1_U1_U4         DIAG_EN U1_U1_N19306 U1_U1_N192183 U1_DIAG_EN_OK
+  COMPHYS_BASIC_GEN PARAMS: VDD=1 VSS=0 VTHRESH=0.5
V_U1_U1_V4         U1_U1_N16778379 0 2
V_U1_U1_V5         U1_U1_N192183 0 250m
V_U1_U1_V6         U1_U1_N19306 0 2
X_U1_U2_U16         U1_U2_N16940643 U1_U2_N16939718 U1_U2_PULL_DOWN
+  OR2_BASIC_GEN PARAMS: VDD=1 VSS=0 VTHRESH=500E-3
E_U1_U2_ABM12         U1_U2_N16940195 0 VALUE { LIMIT(V(U1_U2_N16940116), 0,
+  250u)    }
E_U1_U2_ABM13         U1_U2_N16940402 0 VALUE { LIMIT(V(U1_U2_N16940371), 0,
+  250u)    }
V_U1_U2_V13         U1_U2_5VDC 0 5Vdc
C_U1_U2_C5         0 U1_U2_N16939684  1u IC=0 TC=0,0 
X_U1_U2_U23         U1_DIAG_EN_OK U1_U2_N16940609 INV_BASIC_GEN PARAMS: VDD=1
+  VSS=0 VTHRESH=500E-3
X_U1_U2_F3    U1_U2_N16940514 U1_U2_N16940306 U1_U2_5VDC U1_U2_N16940343
+  CL_CS_FAULT1_U1_U2_F3 
R_U1_U2_R6         U1_IN_OK U1_U2_N16939684  72 TC=0,0 
X_U1_U2_F2    U1_U2_5VDC U1_U2_N16940514 U1_U2_5VDC U1_U2_N16940100
+  CL_CS_FAULT1_U1_U2_F2 
V_U1_U2_V2         U1_U2_N16939904 0 1
R_U1_U2_R7         U1_U2_OL_OFF U1_U2_N16940551  808 TC=0,0 
R_U1_U2_R9         CH2_VCL 0  6k TC=0,0 
E_U1_U2_ABM4         U1_U2_N16939652 0 VALUE { V(VS1)  
+ -V(OUT1_1)    }
R_U1_U2_R8         U1_CH1_VCL 0  6k TC=0,0 
X_U1_U2_S1    U1_U2_CL_FLAG1 0 U1_U2_N16939956 0 CL_CS_FAULT1_U1_U2_S1 
X_U1_U2_U21         U1_U2_N16940551 U1_U2_OL_OFF d_d 
E_U1_U2_ABM3         U1_U2_OL_OFF_PU 0 VALUE { IF(V(U1_U2_N16940551)>0.5,1,0)  
+   }
G_U1_U2_G2         0 CH2_VCL U1_U2_N16940402 0 1
G_U1_U2_G1         0 U1_CH1_VCL U1_U2_N16940195 0 1
C_U1_U2_C1         U1_U2_N16939956 0  1n  TC=0,0 
X_U1_U2_U15         U1_U2_OL_OFF_PU U1_U2_CL_FLAG1 U1_U2_PULL_UP OR2_BASIC_GEN
+  PARAMS: VDD=1 VSS=0 VTHRESH=500E-3
X_U1_U2_U26         U1_U2_N16940609 U1_U2_OL_OFF_PU U1_U2_N16940722 STB1
+  OR3_BASIC_GEN PARAMS: VDD=1 VSS=0 VTHRESH=500E-3
X_U1_U2_U1         U1_U2_N16939956 U1_U2_N16939992 U1_U2_COMP COMP_BASIC_GEN
+  PARAMS: VDD=1 VSS=0 VTHRESH=0.5
X_U1_U2_U22         U1_U2_N16939956 U1_U2_N16939904 d_d 
X_U1_U2_U18         U1_U2_N16940497 U1_U2_N16939718 INV_BASIC_GEN PARAMS: VDD=1
+  VSS=0 VTHRESH=500E-3
X_U1_U2_U25         0 U1_U2_N16939956 d_d 
V_U1_U2_V1         U1_U2_N16939992 0 0.5
X_U1_U2_U11         U1_U2_N16940759 U1_U2_N16939632 U1_U2_OL_OFF AND2_BASIC_GEN
+  PARAMS: VDD=1 VSS=0 VTHRESH=500E-3
R_U1_U2_R3         U1_IN_OK U1_U2_N16940070  216 TC=0,0 
E_U1_U2_ABM8         U1_U2_N16940497 0 VALUE { IF(V(U1_U2_N16939684)>0.5,1,0)  
+   }
C_U1_U2_C2         0 U1_U2_N16940070  1u IC=0 TC=0,0 
X_U1_U2_U5         U1_VCL_TH U1_CH1_VCL U1_U2_CL_FLAG1 COMP_BASIC_GEN PARAMS:
+  VDD=1 VSS=0 VTHRESH=0.5
E_U1_U2_ABM5         U1_U2_CS_SETTLE 0 VALUE { IF(V(U1_U2_N16940070)>0.5,1,0)  
+   }
X_U1_U2_F1    U1_U2_N16940310 CL U1_U2_N16940306 0 CL_CS_FAULT1_U1_U2_F1 
X_U1_U2_U20         CS1 U1_U2_VCS_H d_d 
V_U1_U2_V5         U1_U2_N16939716 0 5
X_U1_U2_U8         U1_U2_COMP U1_U2_N16940068 U1_U2_N16940722 N16940042
+  srlatchrhp_basic_gen PARAMS: VDD=1 VSS=0 VTHRESH=0.5
E_U1_U2_ABM1         U1_U2_N16940548 0 VALUE { V(U1_I_SENSE)/300    }
V_U1_U2_V12         U1_U2_VCS_H 0 5.52
V_U1_U2_V10         U1_U2_VCL_REF 0 0.8Vdc
X_U1_U2_U17         U1_U2_CL_FLAG1 U1_U2_N16940068 INV_BASIC_GEN PARAMS: VDD=1
+  VSS=0 VTHRESH=500E-3
C_U1_U2_C6         0 U1_U2_N16940551  1u IC=0 TC=0,0 
X_U1_U2_U12         U1_IN_OK U1_U2_N16939632 INV_BASIC_GEN PARAMS: VDD=1 VSS=0
+  VTHRESH=500E-3
R_U1_U2_Rsource         U1_U2_N16940310 U1_U2_VCL_REF  1u TC=0,0 
G_U1_U2_ABMII1         U1_U2_N16939716 CS1 VALUE {
+  IF(V(U1_U2_CS_SETTLE)>0.5,V(U1_U2_N16940548),0)    }
I_U1_U2_I1         0 U1_U2_N16939956 DC 2.777uAdc  
X_U1_U2_U14         U1_DIAG_EN_OK U1_U2_N16939658 INV_BASIC_GEN PARAMS: VDD=1
+  VSS=0 VTHRESH=500E-3
R_U1_U2_R5         U1_U2_N16953570 CS1  1 TC=0,0 
E_U1_U2_ABM11         U1_U2_N16953570 0 VALUE { IF(V(U1_U2_PULL_UP)>0.5,
+  5.52,IF(V(U1_U2_PULL_DOWN) > 0.5,0,V(CS1)))    }
R_U1_U2_R4         U1_U2_N16939658 U1_U2_N16940066  14.43 TC=0,0 
V_U1_U2_V11         U1_U2_VOL_OFF 0 1.8
C_U1_U2_C3         0 U1_U2_N16940066  1u IC=0 TC=0,0 
E_U1_U2_ABM6         U1_U2_N16940643 0 VALUE { IF(V(U1_U2_N16940066)>0.5,1,0)  
+   }
X_U1_U2_H2    U1_U2_N16940343 0 U1_U2_N16940371 0 CL_CS_FAULT1_U1_U2_H2 
X_U1_U2_H1    U1_U2_N16940100 0 U1_U2_N16940116 0 CL_CS_FAULT1_U1_U2_H1 
X_U1_U2_U7         U1_U2_VOL_OFF U1_U2_N16939652 U1_U2_N16940759 COMP_BASIC_GEN
+  PARAMS: VDD=1 VSS=0 VTHRESH=0.5
C_U1_U3_Cgs         U1_U3_GATE U1_U3_N17217544  1700p IC=0 TC=0,0 
R_U1_U3_R8         U1_U3_N17217544 U1_U3_GATE  200k TC=0,0 
V_U1_U3_V16         U1_U3_N172176520 VS1 4.5
X_U1_U3_U24         U1_U3_N17217546 U1_U3_N17217864 INV_BASIC_GEN PARAMS: VDD=1
+  VSS=0 VTHRESH=500E-3
X_U1_U3_U23         U1_SWEN U1_U3_N17218004 INV_BASIC_GEN PARAMS: VDD=1 VSS=0
+  VTHRESH=500E-3
G_U1_U3_ABM2I10         U1_U3_GATE 0 VALUE {
+  IF(V(U1_U3_N17217546)-V(0)>0.5,76u,0)    }
E_U1_U3_ABM1         U1_U3_N17217392 0 VALUE { IF(V(U1_SWEN)>0.5,2.24u,0)    }
R_U1_U3_R9         U1_U3_N17217591 VS1  45m TC=0,0 
R_U1_U3_R2         U1_U3_N17217392 U1_U3_N17217375  1 TC=0,0 
G_U1_U3_ABM2I5         U1_U3_GATE 0 VALUE {
+  IF(V(U1_U3_FASTTRIP)-V(0)>0.5,15m,0)    }
G_U1_U3_G1         U1_U3_N17217387 U1_U3_GATE U1_U3_N17217375 0 10
G_U1_U3_ABM2I4         U1_U3_GATE 0 VALUE {
+  LIMIT((V(U1_VCL_TH)-V(U1_CH1_VCL))*10m,0,100u)    }
X_U1_U3_U14         U1_U3_N17217864 U1_U3_N17217620 one_shot PARAMS:  T=50000  
V_U1_U3_V14         VS1 U1_U3_N17217408 59
G_U1_U3_ABM2I1         U1_U3_GATE 0 VALUE {
+  IF(V(U1_U3_N17217620)-V(0)>0.5,5.4u,0)    }
V_U1_U3_V19         U1_U3_N17217387 0 5
D_U1_U3_D4         U1_U3_GATE U1_U3_N172176520 DD 
R_U1_U3_R3         U1_U3_N17217467 U1_U3_N17217444  500 TC=0,0 
X_U1_U3_F1    U1_U3_N17217900 OUT1_1 VS1 U1_VCL_TH DRIVER1_U1_U3_F1 
D_U1_U3_D5         U1_U3_N17217408 U1_U3_N17217544 DD 
E_U1_U3_ABM2         U1_U3_N17217467 0 VALUE { IF(V(U1_U3_N17217476)>0.5 &
+  V(U1_U3_GATE)<1.407,3.9u,0)    }
G_U1_U3_G2         U1_U3_N17217411 U1_U3_GATE U1_U3_N17217444 0 15
R_U1_U3_R10         U1_VCL_TH 0  6k TC=0,0 
C_U1_U3_C2         0 U1_U3_N17217375  1u IC=0 TC=0,0 
E_U1_U3_ABM8         U1_U3_N17217727 0 VALUE { IF(V(U1_VCL_TH)
+  >1.5*V(U1_CH1_VCL),1,0)    }
X_U1_U3_H1    U1_U3_N17217544 U1_U3_N17217900 U1_I_SENSE 0 DRIVER1_U1_U3_H1 
X_U1_U3_U11         U1_SWEN U1_U3_N17217476 one_shot PARAMS:  T=60000  
X_U1_U3_U6         U1_U3_N17217727 U1_U3_FASTTRIP one_shot PARAMS:  T=500  
C_U1_U3_C3         0 U1_U3_N17217444  1n IC=0 TC=0,0 
M_U1_U3_M1         U1_U3_N17217591 U1_U3_GATE U1_U3_N17217544 U1_U3_N17217544
+  NMOS01           
X_U1_U3_U15         U1_U3_N17218004 U1_U3_N17217546 one_shot PARAMS:  T=40000  
V_U1_U3_V20         U1_U3_N17217411 0 5
C_U2_U3_Cgs         U2_U3_GATE U2_U3_N17217544  1700p IC=0 TC=0,0 
R_U2_U3_R8         U2_U3_N17217544 U2_U3_GATE  200k TC=0,0 
V_U2_U3_V16         U2_U3_N172176520 VS2 4.5
X_U2_U3_U24         U2_U3_N17217546 U2_U3_N17217864 INV_BASIC_GEN PARAMS: VDD=1
+  VSS=0 VTHRESH=500E-3
X_U2_U3_U23         U2_SWEN U2_U3_N17218004 INV_BASIC_GEN PARAMS: VDD=1 VSS=0
+  VTHRESH=500E-3
G_U2_U3_ABM2I10         U2_U3_GATE 0 VALUE {
+  IF(V(U2_U3_N17217546)-V(0)>0.5,76u,0)    }
E_U2_U3_ABM1         U2_U3_N17217392 0 VALUE { IF(V(U2_SWEN)>0.5,2.24u,0)    }
R_U2_U3_R9         U2_U3_N17217591 VS2  45m TC=0,0 
R_U2_U3_R2         U2_U3_N17217392 U2_U3_N17217375  1 TC=0,0 
G_U2_U3_ABM2I5         U2_U3_GATE 0 VALUE {
+  IF(V(U2_U3_FASTTRIP)-V(0)>0.5,15m,0)    }
G_U2_U3_G1         U2_U3_N17217387 U2_U3_GATE U2_U3_N17217375 0 10
G_U2_U3_ABM2I4         U2_U3_GATE 0 VALUE {
+  LIMIT((V(U2_VCL_TH)-V(CH2_VCL))*10m,0,100u)    }
X_U2_U3_U14         U2_U3_N17217864 U2_U3_N17217620 one_shot PARAMS:  T=50000  
V_U2_U3_V14         VS2 U2_U3_N17217408 59
G_U2_U3_ABM2I1         U2_U3_GATE 0 VALUE {
+  IF(V(U2_U3_N17217620)-V(0)>0.5,5.4u,0)    }
V_U2_U3_V19         U2_U3_N17217387 0 5
D_U2_U3_D4         U2_U3_GATE U2_U3_N172176520 DD 
R_U2_U3_R3         U2_U3_N17217467 U2_U3_N17217444  500 TC=0,0 
X_U2_U3_F1    U2_U3_N17217900 OUT2_1 VS2 U2_VCL_TH DRIVER1_U2_U3_F1 
D_U2_U3_D5         U2_U3_N17217408 U2_U3_N17217544 DD 
E_U2_U3_ABM2         U2_U3_N17217467 0 VALUE { IF(V(U2_U3_N17217476)>0.5 &
+  V(U2_U3_GATE)<1.407,3.9u,0)    }
G_U2_U3_G2         U2_U3_N17217411 U2_U3_GATE U2_U3_N17217444 0 15
R_U2_U3_R10         U2_VCL_TH 0  6k TC=0,0 
C_U2_U3_C2         0 U2_U3_N17217375  1u IC=0 TC=0,0 
E_U2_U3_ABM8         U2_U3_N17217727 0 VALUE { IF(V(U2_VCL_TH)
+  >1.5*V(CH2_VCL),1,0)    }
X_U2_U3_H1    U2_U3_N17217544 U2_U3_N17217900 U2_I_SENSE 0 DRIVER1_U2_U3_H1 
X_U2_U3_U11         U2_SWEN U2_U3_N17217476 one_shot PARAMS:  T=60000  
X_U2_U3_U6         U2_U3_N17217727 U2_U3_FASTTRIP one_shot PARAMS:  T=500  
C_U2_U3_C3         0 U2_U3_N17217444  1n IC=0 TC=0,0 
M_U2_U3_M1         U2_U3_N17217591 U2_U3_GATE U2_U3_N17217544 U2_U3_N17217544
+  NMOS01           
X_U2_U3_U15         U2_U3_N17218004 U2_U3_N17217546 one_shot PARAMS:  T=40000  
V_U2_U3_V20         U2_U3_N17217411 0 5
E_U2_U2_ABM6         U2_U2_N16785411 0 VALUE { IF(V(U2_U2_N16785239)>0.5,1,0)  
+   }
R_U2_U2_R7         U2_U2_OL_OFF U2_U2_N16784648  808 TC=0,0 
X_U2_U2_U21         U2_U2_N16784648 U2_U2_OL_OFF d_d 
V_U2_U2_V1         U2_U2_N16785154 0 0.5
R_U2_U2_R3         U2_IN_OK U2_U2_N16785243  216 TC=0,0 
X_U2_U2_U11         U2_U2_N16785460 U2_U2_N16784852 U2_U2_OL_OFF AND2_BASIC_GEN
+  PARAMS: VDD=1 VSS=0 VTHRESH=500E-3
E_U2_U2_ABM5         U2_U2_CS_SETTLE 0 VALUE { IF(V(U2_U2_N16785243)>0.5,1,0)  
+   }
X_U2_U2_U17         U2_U2_CL_FLAG2 U2_U2_N16785241 INV_BASIC_GEN PARAMS: VDD=1
+  VSS=0 VTHRESH=500E-3
C_U2_U2_C2         0 U2_U2_N16785243  1u IC=0 TC=0,0 
X_U2_U2_U8         U2_U2_COMP U2_U2_N16785241 U2_U2_N16784758 N16796991
+  srlatchrhp_basic_gen PARAMS: VDD=1 VSS=0 VTHRESH=0.5
V_U2_U2_V5         U2_U2_N16784929 0 5
G_U2_U2_ABMII1         U2_U2_N16784929 CS2 VALUE {
+  IF(V(U2_U2_CS_SETTLE)>0.5,V(U2_U2_N16785347),0)    }
E_U2_U2_ABM1         U2_U2_N16785347 0 VALUE { V(U2_I_SENSE)/300    }
I_U2_U2_I1         0 U2_U2_N16785120 DC 2.777uAdc  
X_U2_U2_U12         U2_IN_OK U2_U2_N16784852 INV_BASIC_GEN PARAMS: VDD=1 VSS=0
+  VTHRESH=500E-3
X_U2_U2_U22         U2_U2_N16785120 U2_U2_N16784602 d_d 
X_U2_U2_U14         U2_DIAG_EN_OK U2_U2_N16784881 INV_BASIC_GEN PARAMS: VDD=1
+  VSS=0 VTHRESH=500E-3
X_U2_U2_U25         0 U2_U2_N16785120 d_d 
X_U2_U2_U15         U2_U2_OL_OFF_PU U2_U2_CL_FLAG2 U2_U2_PULL_UP OR2_BASIC_GEN
+  PARAMS: VDD=1 VSS=0 VTHRESH=500E-3
V_U2_U2_V11         U2_U2_VOL_OFF 0 1.8
X_U2_U2_U18         U2_U2_N16785311 U2_U2_N16784931 INV_BASIC_GEN PARAMS: VDD=1
+  VSS=0 VTHRESH=500E-3
X_U2_U2_U7         U2_U2_VOL_OFF U2_U2_N16784855 U2_U2_N16785460 COMP_BASIC_GEN
+  PARAMS: VDD=1 VSS=0 VTHRESH=0.5
X_U2_U2_U20         CS2 U2_U2_VCS_H d_d 
E_U2_U2_ABM8         U2_U2_N16785311 0 VALUE { IF(V(U2_U2_N16784604)>0.5,1,0)  
+   }
E_U2_U2_ABM3         U2_U2_OL_OFF_PU 0 VALUE { IF(V(U2_U2_N16784648)>0.5,1,0)  
+   }
X_U2_U2_S1    U2_U2_CL_FLAG2 0 U2_U2_N16785120 0 CL_CS_FAULT2_U2_U2_S1 
X_U2_U2_U5         U2_VCL_TH CH2_VCL U2_U2_CL_FLAG2 COMP_BASIC_GEN PARAMS:
+  VDD=1 VSS=0 VTHRESH=0.5
V_U2_U2_V12         U2_U2_VCS_H 0 5.52
X_U2_U2_U26         U2_U2_N16784650 U2_U2_OL_OFF_PU U2_U2_N16784758 STB2
+  OR3_BASIC_GEN PARAMS: VDD=1 VSS=0 VTHRESH=500E-3
V_U2_U2_V2         U2_U2_N16784602 0 1
R_U2_U2_R6         U2_IN_OK U2_U2_N16784604  72 TC=0,0 
R_U2_U2_R5         U2_U2_N16794044 CS2  1 TC=0,0 
C_U2_U2_C3         0 U2_U2_N16785239  1u IC=0 TC=0,0 
R_U2_U2_R4         U2_U2_N16784881 U2_U2_N16785239  14.43 TC=0,0 
E_U2_U2_ABM11         U2_U2_N16794044 0 VALUE { IF(V(U2_U2_PULL_UP)>0.5,
+  5.52,IF(V(U2_U2_PULL_DOWN)>0.5,0,V(CS2)))    }
C_U2_U2_C1         U2_U2_N16785120 0  1n  TC=0,0 
C_U2_U2_C5         0 U2_U2_N16784604  1u IC=0 TC=0,0 
C_U2_U2_C6         0 U2_U2_N16784648  1u IC=0 TC=0,0 
X_U2_U2_U16         U2_U2_N16785411 U2_U2_N16784931 U2_U2_PULL_DOWN
+  OR2_BASIC_GEN PARAMS: VDD=1 VSS=0 VTHRESH=500E-3
X_U2_U2_U23         U2_DIAG_EN_OK U2_U2_N16784650 INV_BASIC_GEN PARAMS: VDD=1
+  VSS=0 VTHRESH=500E-3
X_U2_U2_U1         U2_U2_N16785120 U2_U2_N16785154 U2_U2_COMP COMP_BASIC_GEN
+  PARAMS: VDD=1 VSS=0 VTHRESH=0.5
E_U2_U2_ABM4         U2_U2_N16784855 0 VALUE { V(VS2)  
+ -V(OUT2_1)    }
X_U2_U1_U3         U2_U1_N16778395 U2_IN_OK U2_SWEN AND2_BASIC_GEN PARAMS:
+  VDD=1 VSS=0 VTHRESH=500E-3
R_U2_U1_R1         IN2 0  175k TC=0,0 
X_U2_U1_U1         VS2 U2_U1_N16778317 U2_U1_N167782823 U2_U1_N16778395
+  COMPHYS_BASIC_GEN PARAMS: VDD=1 VSS=0 VTHRESH=0.5
V_U2_U1_Vuv_hys         U2_U1_N167782823 0 0.5
V_U2_U1_V2         U2_U1_N16778317 0 3.7
R_U2_U1_R4         DIAG_EN 0  275k TC=0,0 
X_U2_U1_U2         IN2 U2_U1_N16778379 U2_U1_N167783383 U2_IN_OK
+  COMPHYS_BASIC_GEN PARAMS: VDD=1 VSS=0 VTHRESH=0.5
V_U2_U1_V3         U2_U1_N167783383 0 250m
X_U2_U1_U4         DIAG_EN U2_U1_N19306 U2_U1_N192183 U2_DIAG_EN_OK
+  COMPHYS_BASIC_GEN PARAMS: VDD=1 VSS=0 VTHRESH=0.5
V_U2_U1_V4         U2_U1_N16778379 0 2
V_U2_U1_V5         U2_U1_N192183 0 250m
V_U2_U1_V6         U2_U1_N19306 0 2
R_R4         THER 0  1m TC=0,0 
X_U4         STB1 STB2 N16846871 OR2_BASIC_GEN PARAMS: VDD=1 VSS=0
+  VTHRESH=500E-3
X_S3    N16846871 0 FAULTB 0 TPS2H160B-Q1_S3 
E_ABM1         CNTRL 0 VALUE { IF(V(N16815495) > 0.5, 1, 0)    }
.ENDS TPS2H160B-Q1_TRANS
*$
.SUBCKT TPS2H160B-Q1_S1 1 2 3 4  
S_S1         3 4 1 2 _S1
RS_S1         1 2 1G
.MODEL         _S1 VSWITCH Roff=10E9 Ron=1u Voff=0.5V Von=0.1V
.ENDS TPS2H160B-Q1_S1
*$
.SUBCKT TPS2H160B-Q1_S2 1 2 3 4  
S_S2         3 4 1 2 _S2
RS_S2         1 2 1G
.MODEL         _S2 VSWITCH Roff=10E9 Ron=1u Voff=0.1V Von=0.5V
.ENDS TPS2H160B-Q1_S2
*$
.SUBCKT CL_CS_FAULT1_U1_U2_F3 1 2 3 4  
F_U1_U2_F3         3 4 VF_U1_U2_F3 62.5m
VF_U1_U2_F3         1 2 0V
.ENDS CL_CS_FAULT1_U1_U2_F3
*$
.SUBCKT CL_CS_FAULT1_U1_U2_F2 1 2 3 4  
F_U1_U2_F2         3 4 VF_U1_U2_F2 62.5m
VF_U1_U2_F2         1 2 0V
.ENDS CL_CS_FAULT1_U1_U2_F2
*$
.SUBCKT CL_CS_FAULT1_U1_U2_S1 1 2 3 4  
S_U1_U2_S1         3 4 1 2 _U1_U2_S1
RS_U1_U2_S1         1 2 1G
.MODEL         _U1_U2_S1 VSWITCH Roff=1E9 Ron=1 Voff=1 Von=0
.ENDS CL_CS_FAULT1_U1_U2_S1
*$
.SUBCKT CL_CS_FAULT1_U1_U2_F1 1 2 3 4  
F_U1_U2_F1         3 4 VF_U1_U2_F1 1
VF_U1_U2_F1         1 2 0V
.ENDS CL_CS_FAULT1_U1_U2_F1
*$
.SUBCKT CL_CS_FAULT1_U1_U2_H2 1 2 3 4  
H_U1_U2_H2         3 4 VH_U1_U2_H2 1
VH_U1_U2_H2         1 2 0V
.ENDS CL_CS_FAULT1_U1_U2_H2
*$
.SUBCKT CL_CS_FAULT1_U1_U2_H1 1 2 3 4  
H_U1_U2_H1         3 4 VH_U1_U2_H1 1
VH_U1_U2_H1         1 2 0V
.ENDS CL_CS_FAULT1_U1_U2_H1
*$
.SUBCKT DRIVER1_U1_U3_F1 1 2 3 4  
F_U1_U3_F1         3 4 VF_U1_U3_F1 25u
VF_U1_U3_F1         1 2 0V
.ENDS DRIVER1_U1_U3_F1
*$
.SUBCKT DRIVER1_U1_U3_H1 1 2 3 4  
H_U1_U3_H1         3 4 VH_U1_U3_H1 1
VH_U1_U3_H1         1 2 0V
.ENDS DRIVER1_U1_U3_H1
*$
.SUBCKT DRIVER1_U2_U3_F1 1 2 3 4  
F_U2_U3_F1         3 4 VF_U2_U3_F1 25u
VF_U2_U3_F1         1 2 0V
.ENDS DRIVER1_U2_U3_F1
*$
.SUBCKT DRIVER1_U2_U3_H1 1 2 3 4  
H_U2_U3_H1         3 4 VH_U2_U3_H1 1
VH_U2_U3_H1         1 2 0V
.ENDS DRIVER1_U2_U3_H1
*$
.SUBCKT CL_CS_FAULT2_U2_U2_S1 1 2 3 4  
S_U2_U2_S1         3 4 1 2 _U2_U2_S1
RS_U2_U2_S1         1 2 1G
.MODEL         _U2_U2_S1 VSWITCH Roff=1E9 Ron=1 Voff=1 Von=0
.ENDS CL_CS_FAULT2_U2_U2_S1
*$
.SUBCKT TPS2H160B-Q1_S3 1 2 3 4  
S_S3         3 4 1 2 _S3
RS_S3         1 2 1G
.MODEL         _S3 VSWITCH Roff=10e6 Ron=200 Voff=0.49 Von=0.5
.ENDS TPS2H160B-Q1_S3
*$
.SUBCKT ONE_SHOT IN OUT
+ PARAMs:  T=100
S_S1         MEAS 0 RESET2 0 S1
E_ABM1         CH 0 VALUE { if( V(IN)>0.5 | V(OUT)>0.5,1,0)    }
R_R2         RESET2 RESET  0.1  
E_ABM3         OUT 0 VALUE { if( V(MEAS)<0.5 & V(CH)>0.5,1,0)    }
R_R1         MEAS CH  {T} 
C_C2         0 RESET2  1.4427n  
C_C1         0 MEAS  1.4427n  
E_ABM2         RESET 0 VALUE { if(V(CH)<0.5,1,0)    }
.MODEL         S1 VSWITCH Roff=1e9 Ron=1.0 Voff=0.25V Von=0.75V
.ENDS ONE_SHOT
*$
.SUBCKT AND2_BASIC_GEN A B Y PARAMS: VDD=1 VSS=0 VTHRESH=0.5 
E_ABMGATE    YINT 0 VALUE {{IF(V(A) > {VTHRESH}  &  
+ V(B) > {VTHRESH},{VDD},{VSS})}}
RINT YINT Y 1
CINT Y 0 1n
.ENDS AND2_BASIC_GEN
*$
.SUBCKT OR2_BASIC_GEN A B Y PARAMS: VDD=1 VSS=0 VTHRESH=0.5 
E_ABMGATE    YINT 0 VALUE {{IF(V(A) > {VTHRESH}  |  
+ V(B) > {VTHRESH},{VDD},{VSS})}}
RINT YINT Y 1
CINT Y 0 1n
.ENDS OR2_BASIC_GEN
*$
.SUBCKT OR3_BASIC_GEN A B C Y PARAMS: VDD=1 VSS=0 VTHRESH=0.5 
E_ABMGATE    YINT 0 VALUE {{IF(V(A) > {VTHRESH}  |  
+ V(B) > {VTHRESH} |
+ V(C) > {VTHRESH},{VDD},{VSS})}}
RINT YINT Y 1
CINT Y 0 1n
.ENDS OR3_BASIC_GEN
*$
.SUBCKT INV_BASIC_GEN A  Y PARAMS: VDD=1 VSS=0 VTHRESH=0.5 
E_ABMGATE    YINT 0 VALUE {{IF(V(A) > {VTHRESH} , 
+ {VSS},{VDD})}}
RINT YINT Y 1
CINT Y 0 1n
.ENDS INV_BASIC_GEN
*$
.SUBCKT INV_DELAY_BASIC_GEN A  Y PARAMS: VDD=1 VSS=0 VTHRESH=0.5 DELAY = 10n 
E_ABMGATE1    YINT1 0 VALUE {{IF(V(A) > {VTHRESH} , 
+ {VDD},{VSS})}}
RINT YINT1 YINT2 1
CINT YINT2 0 {DELAY*1.3}
E_ABMGATE2    YINT3 0 VALUE {{IF(V(YINT2) > {VTHRESH} , 
+ {VSS},{VDD})}}
RINT2 YINT3 Y 1
CINT2 Y 0 1n
.ENDS INV_DELAY_BASIC_GEN
*$
.SUBCKT BUF_DELAY_BASIC_GEN A  Y PARAMS: VDD=1 VSS=0 VTHRESH=0.5 DELAY = 10n 
E_ABMGATE1    YINT1 0 VALUE {{IF(V(A) > {VTHRESH} , 
+ {VDD},{VSS})}}
RINT YINT1 YINT2 1
CINT YINT2 0 {DELAY*1.3}
E_ABMGATE2    YINT3 0 VALUE {{IF(V(YINT2) > {VTHRESH} , 
+ {VDD},{VSS})}}
RINT2 YINT3 Y 1
CINT2 Y 0 1n
.ENDS BUF_DELAY_BASIC_GEN
*$
.SUBCKT BUF_BASIC_GEN A  Y PARAMS: VDD=1 VSS=0 VTHRESH=0.5 
E_ABMGATE    YINT 0 VALUE {{IF(V(A) > {VTHRESH} , 
+ {VDD},{VSS})}}
RINT YINT Y 1
CINT Y 0 1n
.ENDS BUF_BASIC_GEN
*$
.SUBCKT COMP_BASIC_GEN INP INM Y PARAMS: VDD=1 VSS=0 VTHRESH=0.5	
E_ABM Yint 0 VALUE {IF (V(INP) > 
+ V(INM), {VDD},{VSS})}
R1 Yint Y 1
C1 Y 0 1n
.ENDS COMP_BASIC_GEN
*$
.SUBCKT COMPHYS_BASIC_GEN INP INM HYS OUT PARAMS: VDD=1 VSS=0 VTHRESH=0.5	
EIN INP1 INM1 INP INM 1 
EHYS INP1 INP2 VALUE { IF( V(1) > {VTHRESH},-V(HYS),0) }
EOUT OUT 0 VALUE { IF( V(INP2)>V(INM1), {VDD} ,{VSS}) }
R1 OUT 1 1
C1 1 0 5n
RINP1 INP1 0 1K
.ENDS COMPHYS_BASIC_GEN
*$
.MODEL NMOS01 NMOS (VTO = 1.407 KP = 3.233 LAMBDA  = 0.001)
*$
**Reset has higher priority in this latch
.SUBCKT SRLATCHRHP_BASIC_GEN S R Q QB PARAMS: VDD=1 VSS=0 VTHRESH=0.5 
GQ 0 Qint VALUE = {IF(V(R) > {VTHRESH},-5,IF(V(S)>{VTHRESH},5, 0))}
CQint Qint 0 1n
RQint Qint 0 1000MEG
D_D10 Qint MY5 D_D1
V1 MY5 0 {VDD}
D_D11 MYVSS Qint D_D1
V2 MYVSS 0 {VSS} 
EQ Qqq 0 Qint 0 1
X3 Qqq Qqqd1 BUF_BASIC_GEN PARAMS: VDD={VDD} VSS={VSS} VTHRESH={VTHRESH}
RQq Qqqd1 Q 1
EQb Qbr 0 VALUE = {IF( V(Q) > {VTHRESH}, {VSS},{VDD})}
RQb Qbr QB 1 
Cdummy1 Q 0 1n 
Cdummy2 QB 0 1n
.IC V(Qint) {VSS}
.MODEL D_D1 D( IS=1e-15 TT=10p Rs=0.05 N=.1 )
.ENDS SRLATCHRHP_BASIC_GEN
*$
.MODEL dd d (is=1e-015 n=1 tt=1e-011 Rs=15m )
*$
.MODEL DD1 D( IS=1e-15 TT=10p Rs=0.05 N=.1  )
*$
.SUBCKT D_D1 1 2
D1 1 2 DD1
.MODEL DD1 D( IS=1e-15 TT=10p Rs=0.05 N=.1  )
.ENDS D_D1
*$
.SUBCKT d_d 1 2
d1 1 2 dd
.MODEL dd d ( is=1e-015 n=0.01 tt=1e-011 )
.ENDS d_d
*$