*$
* TPS259620
*****************************************************************************
* (C) Copyright 2019 Texas Instruments Incorporated. All rights reserved.
*****************************************************************************
** This model is designed as an aid for customers of Texas Instruments.
** TI and its licensors and suppliers make no warranties, either expressed
** or implied, with respect to this model, including the warranties of
** merchantability or fitness for a particular purpose. The model is
** provided solely on an "as is" basis. The entire risk as to its quality
** and performance is with the customer.
*****************************************************************************
*
** Released by: WEBENCH Design Center, Texas Instruments Inc.
* Part: TPS259620
* Date: 09AUg2019	
* Model Type: Transient
* Simulator: PSpice
* Simulator Version: 17.2.0.p001
*****************************************************************************
*
* Updates:
*
* Final 1.00
* Release to Web
*
*****************************************************************************
*
* Model Usage Notes:
*
* A. Features that have been modelled
*	1. Startup
*	2. Programmable Current Limit
*	3. POR, UVLO, OVP, ILIM, IMON, FLTb, dVdT and GND pin functionalities modelled
*	4. Auto retry, Latch off 
*	5. RON
*
* B. Model Limitations and Features that haven't been modelled
*	1. Temperature dependent characteristics are not modelled. Thermal Shutdown Time vs Power Dissipation
*      is modelled such that temperature is not taken into account and only Power dissipation vs time is taken, 
*      once TSD is hit the timer accumulates power dissipation even if Overload is removed and until timer is reached
*      resulting in Shutdown.
*	2. Do not Keep maximum step size more than 1ms in simulation profiles for faster simulations and
*      keep it less than 10us for accurate results.
*       
*****************************************************************************
*$
.SUBCKT TPS259620_TRANS GND dVdT UVLO  IN OUT FLT_N ILIM OVLO_OVCSEL PARAMS: Cdvdt=10n
.PARAM  x2=1 tsd=0  
E_E5         UVLO_INT 0 UVLO GND 1
E_ABM38         OVCL_TH 0 VALUE { if(V(IOVLO)<1u,13.7,if(V(IOVLO)<10u,5.7,3.8))
+     }
X_S16    N17577921 0 N17578788 N17578774 TPS259620_S16 
E_E7         AVDD_INT GND AVDD 0 1
E_U4_ABM3         ILIM_OPEN 0 VALUE { if(V(ILIM)>3,1,0)    }
V_U4_V1         U4_N16965819 0 66m
X_U4_U14         ILIM AVDD_INT d_d1_tps2662x PARAMS:
R_U4_R107         U4_N16963821 U4_N16965391  {5u/(0.7*1n)} TC=0,0 
G_U4_G1         AVDD_INT ILIM ISENSE 0 0.66m
C_U4_C71         U4_N16965391 0  1n IC=0 TC=0,0 
G_U4_ABMII1         AVDD_INT ILIM VALUE { if(V(PG)<0.5,1u,0)    }
E_U4_ABM5         U4_N16967267 0 VALUE { if(V(U4_N16965391)>0.5 &
+  V(ISENSE)>1,1,0)    }
E_U4_ABM2         U4_N16963821 0 VALUE { if(V(ILIM)< V(U4_N16965819)  
+ ,1,0)   }
E_U4_U184_ABM6         U4_U184_N06516 0 VALUE { IF( V(POR_SHDN)>0.5, 0,   
+ +IF(V(U4_N16967267)>0.5, 10,   
+ +V(U4_U184_N04050) ) )  }
C_U4_U184_C3         U4_U184_N04050 0  0.01n IC=0 TC=0,0 
E_U4_U184_ABM7         U4_N16967999 0 VALUE { IF(V(U4_U184_N04050) >0.5,0,1)   
+  }
R_U4_U184_R3         U4_U184_N06516 U4_U184_N04050  10 TC=0,0 
E_U4_U184_ABM8         ILIM_SHORT 0 VALUE { IF(V(U4_U184_N04050) >0.5,1,0)    }
E_E11         AVDD 0 N17577926 0 1
E_E4         VIN_INT 0 N17578354 GND 1
C_C6         N17577926 0  1n IC=0 TC=0,0 
E_E2         OVCL_VAL 0 TABLE { V(OVCL_TH, 0) } 
+ ( (0,0) (3.8,3.4) (5.7,5.2) (13.7,13) )
R_U2_R4         DVDT_LOW U2_STRT_DLY  1000  
V_U2_V3         U2_N16742454 U2_N16816431 0
C_U2_C8         U2_STRT_DLY 0  1n IC=0 TC=0,0 
C_U2_C7         U2_N16795671 GND  1.45p IC=0 TC=0,0 
X_U2_U11         U2_N16822456 OFF_DVDT U2_N16822387 OR2_BASIC_GEN PARAMS: VDD=1
+  VSS=0 VTHRESH=500E-3
X_U2_U10         U2_N16742454 AVDD_INT d_d1_tps2662x PARAMS:
R_U2_R3         U2_N16795671 U2_N16742454  1u  
E_U2_E2         RAMP_CNTRL GND VALUE { IF(V(U2_STRT_DLY)>0.5, V(U2_N16816431,
+  GND)*21.6, 0) }
X_U2_S1    U2_N16822387 0 U2_N16742454 GND dV_by_dT_U2_S1 
V_U2_V1         GND U2_N16807366 0.6
X_U2_U9         DVDT_LOW U2_N16822456 INV_BASIC_GEN PARAMS: VDD=1 VSS=0
+  VTHRESH=500E-3
R_U2_R2         GND DVDT  1E9  
R_U2_R19         U2_N16807366 U2_N16807598  0.5 TC=0,0 
L_U2_L1         U2_N16742454 U2_N16808304  0.1nH  
G_U2_ABMII1         AVDD_INT U2_N16742454 VALUE { IF(V(DVDT_LOW)>0.5, 2u, 0)   
+  }
X_U2_U4         U2_N16807598 U2_N16742454 d_d_tps2662x PARAMS:
R_U2_R1         DVDT U2_N16808304  1m  
R_R28         N175779921 N17578217  0.5 TC=0,0 
G_ABM2I1         N17578354 GND VALUE { IF(V(POR)>0.5, IF(V(SHDNB)>0.5, 189u+
+ {x2}*7u, 1u), 0)    }
R_R7         N17578626 N17577926  1000 TC=0,0 
X_H1    N17578337 N17578788 IOVLO GND TPS259620_H1 
V_V7         N17578337 GND 1.2
R_R31         OVLO_OVCSEL N17578774  1m TC=0,0 
V_V4         GND N175779921 0.6
G_U3_ABM2I5         U3_GATE U3_ZZZ VALUE { IF(V(FAST_TRIP)-V(0)>0.5, 1m,0)    }
X_U3_U12         U3_GATE U3_AA d_d1_tps2662x PARAMS:
E_U3_E2         U3_N17916388 N17578571 U3_EN_GATE 0 5
X_U3_U16         VREV U3_N17916390 INV_BASIC_GEN PARAMS: VDD=1 VSS=0
+  VTHRESH=500E-3
X_U3_S2    U3_EN_GATE 0 N17578571 U3_N17916388 MOS_U3_S2 
X_U3_U25         U3_ILIM_OPENB U3_N17964719 U3_EN_GATE AND2_BASIC_GEN PARAMS:
+  VDD=1 VSS=0 VTHRESH=500E-3
X_U3_U11         U3_N17916747 FAST_TRIP d_d1_tps2662x PARAMS:
C_U3_C7         U3_N17915964 GND  0.01n IC=0 TC=0,0 
R_U3_R15         U3_N17915958 U3_N179163480  10 TC=0,0 
R_U3_R23         U3_N180162781 U3_N18021459  {1u/(0.69*1n)} TC=0,0 
C_U3_C56         0 U3_N18021459  1n  TC=0,0 
R_U3_R19         U3_N17915958 U3_N17916338  85m TC=0,0 
X_U3_U27         SWEN OVP U3_N18016803 AND2_BASIC_GEN PARAMS: VDD=1 VSS=0
+  VTHRESH=500E-3
X_U3_U20         SHDNB SWEN U3_N17915844 AND2_BASIC_GEN PARAMS: VDD=1 VSS=0
+  VTHRESH=500E-3
R_U3_R7         PG U3_N17916102  {12m/(0.7*1n)} TC=0,0 
E_U3_E5         U3_PRE_OFF 0 VALUE { IF(V(U3_GATE, U3_N17916038)>4, 1, 0) }
C_U3_Cgs1         U3_N17916776 U3_N17916038  1p  TC=0,0 
X_U3_S3    U3_N17966959 0 U3_GATE U3_ZZZ MOS_U3_S3 
X_U3_U13         U3_N18001965 U3_GATE d_d1_tps2662x PARAMS:
R_U3_R21         U3_N179159191 U3_N17916699  0.5 TC=0,0 
X_U3_U21         VREV U3_RVB INV_BASIC_GEN PARAMS: VDD=1 VSS=0 VTHRESH=500E-3
X_U3_U28         U3_N18013864 OVP U3_OVP_OS AND2_BASIC_GEN PARAMS: VDD=1 VSS=0
+  VTHRESH=500E-3
V_U3_V1         GND U3_N179159191 0.6
G_U3_ABM2I14         U3_GATE U3_ZZZ VALUE { if({x2}>0.5 & V(OVP) >0.5,
+  LIMIT((V(OUT)-V(OVCL_VAL))*1m, 0,10u),0)    }
G_U3_ABM2I1         U3_AA U3_GATE VALUE { IF(V(SWEN)>0.5 &
+  V(SW_OFF)<0.5,8.3u,0)    }
X_U3_U6         U3_N17916699 OUT d_d_tps2662x PARAMS:
E_U3_ABM15         U3_FAST_TRIP_HIT 0 VALUE { IF( V(ILIM)>V(U3_N17915883), 1,0)
+     }
R_U3_R4         OUT GND  1E8  
X_U3_U14         U3_GATE U3_BBB d_d1_tps2662x PARAMS:
E_U3_ABM17         U3_BBB 0 VALUE { if(V(U3_PRE_OFF)<0.5,  
+ V(RAMP_CNTRL),V(U3_AA))   }
C_U3_C3         0 U3_N17916102  1n IC=0 TC=0,0 
C_U3_C55         0 U3_OVP_DEL  1n  TC=0,0 
X_U3_U22         U3_N17915844 U3_N17949143 INV_BASIC_GEN PARAMS: VDD=1 VSS=0
+  VTHRESH=500E-3
E_U3_E1         U3_ZZZ GND U3_N17916038 GND 1
C_U3_C54         FAST_TRIP 0  1n IC=0 TC=0,0 
C_U3_Cgd         U3_N179163480 U3_GATE  110p  TC=0,0 
X_U3_U10         PG U3_N17916224 d_d_tps2662x PARAMS:
V_U3_V11         U3_N17922011 0 0.6
R_U3_R8         U3_PRE_OFF OFF_DVDT  {0.1u/(0.69*1n)} TC=0,0 
E_U3_E4         PG 0 VALUE { IF(V(U3_GATE, U3_N17916038)>4, 1, 0) }
E_U3_E6         U3_N18001965 U3_ZZZ U3_N18021459 0 1
X_U3_U23         U3_N17949143 SW_OFF U3_N17950393 OR2_BASIC_GEN PARAMS: VDD=1
+  VSS=0 VTHRESH=500E-3
X_U3_S4    U3_N17916102 0 U3_N17916224 U3_N17916102 MOS_U3_S4 
R_U3_R16         U3_GATE U3_N17916776  1 TC=0,0 
V_U3_V9         U3_N17916038 U3_N179159511 0
X_U3_U29         U3_OVP_DEL U3_N18013864 INV_BASIC_GEN PARAMS: VDD=1 VSS=0
+  VTHRESH=500E-3
M_U3_M2         U3_N17916338 U3_GATE U3_N17916038 U3_N17916038 NMOS01          
+  
X_U3_U19         U3_N17916390 SWEN U3_N17964719 AND2_BASIC_GEN PARAMS: VDD=1
+  VSS=0 VTHRESH=500E-3
V_U3_V10         U3_N17915883 0 1
R_U3_R22         OVP U3_OVP_DEL  {2u/(0.69*1n)} TC=0,0 
X_U3_U24         ILIM_OPEN U3_ILIM_OPENB INV_BASIC_GEN PARAMS: VDD=1 VSS=0
+  VTHRESH=500E-3
L_U3_L2         U3_N17916049 OUT  2nH  
R_U3_R5         U3_N17916747 FAST_TRIP  {5u/(0.7*1n)} TC=0,0 
V_U3_Vxxx         N17578571 U3_N17915958 0Vdc
X_U3_U26         ILIM_OPEN U3_N17950393 U3_N17966959 OR2_BASIC_GEN PARAMS:
+  VDD=1 VSS=0 VTHRESH=500E-3
R_U3_R17         U3_N17916388 U3_N17915958  1E7 TC=0,0 
C_U3_C4         0 OFF_DVDT  1n IC=0 TC=0,0 
X_U3_U9         U3_N179159511 U3_N17915958 d_d1_tps2662x PARAMS:
V_U3_V7         U3_AA U3_N17917034 5
G_U3_ABM2I4         U3_GATE U3_ZZZ VALUE { IF(V(CKT_BRKR)>0.5 & V(PG)>0.5, 0,
+  V(ILIM_HIT)* LIMIT((V(ILIM)-V(U3_N17922011))*1m, 0,100u))    }
V_U3_V12         U3_V1V 0 1
E_U3_E3         U3_N17917034 GND VALUE { V(N17578571, GND) }
R_U3_R18         N17578571 U3_N17916388  1E7 TC=0,0 
R_U3_R3         U3_N17915964 OUT  1  
C_U3_Cgs         U3_GATE U3_ZZZ  120p IC=0 TC=0,0 
X_U3_H1    U3_N17916038 U3_N17916049 ISENSE 0 MOS_U3_H1 
E_U3_ABM16         U3_N17916747 0 VALUE { IF(V(U3_FAST_TRIP_HIT)>0.5, 1, 0)   
+  }
E_U3_ABM18         U3_N180162781 0 VALUE { {1.71*{x2}*V(U3_N18016803)}    }
E_E10         OUT_INT 0 OUT GND 1
R_R32         GND OVLO_OVCSEL  1G TC=0,0 
X_U6         N17578217 SHDN_N d_d_tps2662x PARAMS:
R_U8_R112         U8_N17557554 U8_N17472978  {1u/(0.7*1n)} TC=0,0 
X_U8_U1_U787         U8_U1_N00322 U8_U1_N00348 INV_BASIC_GEN PARAMS: VDD=1
+  VSS=0 VTHRESH=500E-3
X_U8_U1_U788         U8_N17528910 U8_N17473086 U8_U1_N05045 OR2_BASIC_GEN
+  PARAMS: VDD=1 VSS=0 VTHRESH=500E-3
C_U8_U1_C13         U8_U1_N00344 0  1n IC=0 TC=0,0 
X_U8_U1_U7         U8_U1_N00458 U8_U1_N00344 d_d1_tps2662x PARAMS:
X_U8_U1_U12         U8_U1_N00322 U8_U1_N00344 U8_N17473086 AND2_BASIC_GEN
+  PARAMS: VDD=1 VSS=0 VTHRESH=500E-3
E_U8_U1_GAIN2         U8_U1_N05454 0 VALUE {1 * V(U8_U1_N05045)}
R_U8_U1_R6         0 U8_U1_N00322  1E9 TC=0,0 
E_U8_U1_ABM16         U8_U1_N00602 0 VALUE { IF(V(U8_N17528910)>0.5, 1, 0)    }
R_U8_U1_R4         0 U8_U1_N00344  1E9 TC=0,0 
R_U8_U1_R113         U8_U1_N00602 U8_U1_N00322  {1.1m/(0.693*1n)} TC=0,0 
E_U8_U1_GAIN1         U8_U1_N00458 0 VALUE {1 * V(U8_U1_N00348)}
R_U8_U1_R5         U8_U1_N00458 U8_U1_N00344  {1.1m/(0.693*1n)} TC=0,0 
C_U8_U1_C76         U8_U1_N00322 0  1n IC=0 TC=0,0 
X_U8_U1_U6         U8_U1_N00602 U8_U1_N00322 d_d1_tps2662x PARAMS:
X_U8_U1_U9         U8_U1_N00322 U8_U1_N05454 d_d1_tps2662x PARAMS:
R_U8_R107         U8_N17472832 U8_N17472718  {1u/(0.7*1n)} TC=0,0 
E_U8_U183_ABM6         U8_U183_N06516 0 VALUE { IF( V(POR_SHDN)>0.5, 0,   
+ +IF(V(U8_N17473230)>0.5, 10,   
+ +V(U8_U183_N04050) ) )  }
C_U8_U183_C3         U8_U183_N04050 0  0.01n IC=0 TC=0,0 
E_U8_U183_ABM7         U8_N17473321 0 VALUE { IF(V(U8_U183_N04050) >0.5,0,1)   
+  }
R_U8_U183_R3         U8_U183_N06516 U8_U183_N04050  10 TC=0,0 
E_U8_U183_ABM8         U8_N17472722 0 VALUE { IF(V(U8_U183_N04050) >0.5,1,0)   
+  }
E_U8_GAIN55         U8_N17488442 0 VALUE {1 * V(U8_N17735977)}
X_U8_U870         ILIM_OPEN U8_N17783686 INV_BASIC_GEN PARAMS: VDD=1 VSS=0
+  VTHRESH=500E-3
E_U8_ABM24         U8_LAT_OFF 0 VALUE { IF(V(U8_N17473870)<7.5u &
+  V(U8_N17473870)>3u, 1, 0)    }
X_U8_U31         U8_N17611510 FLT_N d_d_tps2662x PARAMS:
X_U8_U185         U8_N17473324 FAST_TRIP U8_N17473108 OR2_BASIC_GEN PARAMS:
+  VDD=1 VSS=0 VTHRESH=500E-3
R_U8_R104         U8_N17472863 ILIM_HIT  {87u/(0.7*1n)} TC=0,0 
R_U8_R109         U8_N17472803 AVDD_INT  400K TC=0,0 
C_U8_C75         U8_N17472978 0  1n IC=0 TC=0,0 
C_U8_C73         0 U8_N17472689  10n IC=0 TC=0,0 
V_U8_V55         U8_N17474012 0 1
X_U8_U170         U8_N17472718 U8_N17472691 U8_N17473230 OR2_BASIC_GEN PARAMS:
+  VDD=1 VSS=0 VTHRESH=500E-3
R_U8_R105         SW_OFF_PRE SW_OFF  {1u/(0.7*1n)} TC=0,0 
X_U8_U12         U8_N17472720 U8_N17473421 d_d1_tps2662x PARAMS:
E_U8_GAIN4         U8_N17472863 0 VALUE {1 * V(U8_N17472889)}
C_U8_C71         U8_N17472718 0  1n IC=0 TC=0,0 
E_U8_ABM25         CKT_BRKR 0 VALUE { IF(V(U8_N17473870)<3u, 1, 0)    }
X_U8_U175         U8_N17472829 POR_SHDN U8_RS_SWOFF OR2_BASIC_GEN PARAMS: VDD=1
+  VSS=0 VTHRESH=500E-3
C_U8_C54         U8_N17473697 0  1n IC=0 TC=0,0 
V_U8_V53         GND U8_N17473539 0.6
X_U8_U182         CKT_BRKR OTSD U8_N17472691 AND2_BASIC_GEN PARAMS: VDD=1 VSS=0
+  VTHRESH=500E-3
E_U8_U188_ABM6         U8_U188_N06516 0 VALUE { IF( V(U8_N17473270)>0.5, 0,   
+ +IF(V(U8_N17473291)>0.5, 10,   
+ +V(U8_U188_N04050) ) )  }
C_U8_U188_C3         U8_U188_N04050 0  0.01n IC=0 TC=0,0 
E_U8_U188_ABM7         U8_N17473272 0 VALUE { IF(V(U8_U188_N04050) >0.5,0,1)   
+  }
R_U8_U188_R3         U8_U188_N06516 U8_U188_N04050  10 TC=0,0 
E_U8_U188_ABM8         U8_N17472853 0 VALUE { IF(V(U8_U188_N04050) >0.5,1,0)   
+  }
E_U8_GAIN56         U8_N17557554 0 VALUE {1 * V(U8_N17554543)}
R_U8_R20         U8_N17473647 U8_N17611510  0.5 TC=0,0 
X_U8_U867         U8_SW_OFFLAT N17731185 U8_N17723500 U8_V1V U8_RS_SWOFF U8_V0V
+  dffsr_rhpbasic_gen PARAMS: VDD=1 VSS=0 VTHRESH=500E-3
X_U8_U196         SW_OFF U8_N17769936 U8_N17769936 U8_N17790999 OR3_BASIC_GEN
+  PARAMS: VDD=1 VSS=0 VTHRESH=500E-3
C_U8_C70         0 U8_N17472720  1u IC=0 TC=0,0 
X_U8_U203         RTY_TIME U8_N17472744 INV_BASIC_GEN PARAMS: VDD=1 VSS=0
+  VTHRESH=500E-3
C_U8_C68         SW_OFF 0  1n IC=0 TC=0,0 
X_U8_U861         RTY_TIME U8_LAT_OFF U8_N17794129 NOR2_BASIC_GEN PARAMS: VDD=1
+  VSS=0 VTHRESH=500E-3
V_U8_V57         U8_N17473086 U8_N17473270 0Vdc
X_U8_U15         U8_N17557554 U8_N17472978 d_d1_tps2662x PARAMS:
X_U8_H9    U8_N17472803 U8_N17473767 U8_N17473870 0 MODE_FLTb_U8_H9 
X_U8_U186         ILIM_HIT U8_N17473324 INV_BASIC_GEN PARAMS: VDD=1 VSS=0
+  VTHRESH=500E-3
V_U8_V61         U8_N17755423 GND {TSD}
X_U8_U171         U8_N17472765 U8_N17472744 U8_N17472829 AND2_BASIC_GEN PARAMS:
+  VDD=1 VSS=0 VTHRESH=500E-3
X_U8_S17    U8_N17473086 0 U8_N17472720 0 MODE_FLTb_U8_S17 
E_U8_GAIN54         U8_N17472832 0 VALUE {1 * V(U8_N17473617)}
V_U8_V60         U8_N17749680 0 0.6
X_U8_U180         CKT_BRKR U8_AUTO_RTY U8_N17472765 OR2_BASIC_GEN PARAMS: VDD=1
+  VSS=0 VTHRESH=500E-3
V_U8_V56         U8_N17474142 0 2
X_U8_U207         U8_TSD U8_N17473676 FLTB_OVR_DRV U8_N17769936 OR3_BASIC_GEN
+  PARAMS: VDD=1 VSS=0 VTHRESH=500E-3
X_U8_U209         U8_N17472689 U8_N17474012 U8_N17473617 COMP_BASIC_GEN PARAMS:
+  VDD=1 VSS=0 VTHRESH=0.5
X_U8_U11         0 U8_N17472720 d_d1_tps2662x PARAMS:
X_U8_U9         0 U8_N17472689 d_d1_tps2662x PARAMS:
X_U8_U866         U8_ILIM_HIT_OSB U8_N17723500 one_shot PARAMS:  T=200000  
E_U8_U173_ABM6         U8_U173_N06516 0 VALUE { IF( V(U8_RS_SWOFF)>0.5, 0,   
+ +IF(V(U8_N17473697)>0.5, 10,   
+ +V(U8_U173_N04050) ) )  }
C_U8_U173_C3         U8_U173_N04050 0  0.01n IC=0 TC=0,0 
E_U8_U173_ABM7         U8_N17473486 0 VALUE { IF(V(U8_U173_N04050) >0.5,0,1)   
+  }
R_U8_U173_R3         U8_U173_N06516 U8_U173_N04050  10 TC=0,0 
E_U8_U173_ABM8         SW_OFF_PRE 0 VALUE { IF(V(U8_U173_N04050) >0.5,1,0)    }
X_U8_U187         U8_N17472798 U8_N17473108 U8_N17472808 OR2_BASIC_GEN PARAMS:
+  VDD=1 VSS=0 VTHRESH=500E-3
V_U8_V58         U8_V1V 0 1Vdc
V_U8_V52         U8_N17473421 0 1.5
X_U8_U178         CKT_BRKR U8_N17472798 INV_BASIC_GEN PARAMS: VDD=1 VSS=0
+  VTHRESH=500E-3
X_U8_U25         U8_N17610351 U8_N17473767 d_d_tps2662x PARAMS:
R_U8_R106         U8_N17473153 RTY_TIME  {1u/(0.7*1n)} TC=0,0 
X_U8_U863         ILIM_HIT U8_N17718563 one_shot PARAMS:  T=412000000  
V_U8_V59         U8_V0V 0 0Vdc
X_U8_U172         U8_N17472810 OTSD U8_N17472746 AND2_BASIC_GEN PARAMS: VDD=1
+  VSS=0 VTHRESH=500E-3
X_U8_U862         U8_SW_OFFLAT U8_N17472746 U8_N17473568 U8_N17735977
+  OR3_BASIC_GEN PARAMS: VDD=1 VSS=0 VTHRESH=500E-3
V_U8_V54         GND U8_N17473647 0.6
X_U8_U208         U8_N17472722 U8_N17472853 U8_N17473153 OR2_BASIC_GEN PARAMS:
+  VDD=1 VSS=0 VTHRESH=500E-3
X_U8_U13         U8_N17472832 U8_N17472718 d_d1_tps2662x PARAMS:
X_U8_U14         U8_N17488442 U8_N17473697 d_d1_tps2662x PARAMS:
X_U8_U864         U8_N17718563 U8_LAT_OFF U8_LAT_OFF U8_N17721636
+  AND3_BASIC_GEN PARAMS: VDD=1 VSS=0 VTHRESH=500E-3
X_U8_S18    U8_N17472808 0 U8_N17472689 0 MODE_FLTb_U8_S18 
X_U8_U868         ILIM U8_N17749680 U8_N17472889 COMP_BASIC_GEN PARAMS: VDD=1
+  VSS=0 VTHRESH=0.5
G_U8_ABM2I14         0 U8_N17472720 VALUE { IF(V(U8_N17472853)>0.5, 9.09u, 0)  
+   }
E_U8_ABM23         U8_AUTO_RTY 0 VALUE { IF(V(U8_N17473870)>=7.5u, 1, 0)    }
E_U8_U184_ABM6         U8_U184_N06516 0 VALUE { IF( V(U8_LAT_RST)>0.5, 0,   
+ +IF(V(U8_N17473116)>0.5, 10,   
+ +V(U8_U184_N04050) ) )  }
C_U8_U184_C3         U8_U184_N04050 0  0.01n IC=0 TC=0,0 
E_U8_U184_ABM7         U8_N17473550 0 VALUE { IF(V(U8_U184_N04050) >0.5,0,1)   
+  }
R_U8_U184_R3         U8_U184_N06516 U8_U184_N04050  10 TC=0,0 
E_U8_U184_ABM8         U8_TSD 0 VALUE { IF(V(U8_U184_N04050) >0.5,1,0)    }
X_U8_U181         U8_LAT_OFF U8_AUTO_RTY U8_N17472810 OR2_BASIC_GEN PARAMS:
+  VDD=1 VSS=0 VTHRESH=500E-3
C_U8_C69         RTY_TIME 0  1n IC=0 TC=0,0 
V_U8_V51         U8_N17473372 0 1
X_U8_U205         U8_N17472746 RTY_TIME U8_N17473116 OR2_BASIC_GEN PARAMS:
+  VDD=1 VSS=0 VTHRESH=500E-3
X_U8_S19    U8_N17755423 GND U8_N17473767 GND MODE_FLTb_U8_S19 
R_U8_R19         U8_N17473539 U8_N17610351  0.5 TC=0,0 
X_U8_S16    U8_N17472813 0 FLT_N GND MODE_FLTb_U8_S16 
R_U8_R108         U8_N17473780 FLT_N  10 TC=0,0 
C_U8_C67         ILIM_HIT 0  1n IC=0 TC=0,0 
R_U8_R110         GND U8_N17473767  10E6 TC=0,0 
G_U8_ABM2I15         0 U8_N17472689 VALUE { {IF(V(U8_N17473108)<0.5,
+  V(CKT_BRKR)*90n, 0)}    }
X_U8_U179         CKT_BRKR U8_N17473116 U8_N17473568 AND2_BASIC_GEN PARAMS:
+  VDD=1 VSS=0 VTHRESH=500E-3
X_U8_U200         POR_SHDN U8_N17472978 U8_N17528910 OR2_BASIC_GEN PARAMS:
+  VDD=1 VSS=0 VTHRESH=500E-3
X_U8_U865         U8_N17721636 U8_ILIM_HIT_OSB INV_BASIC_GEN PARAMS: VDD=1
+  VSS=0 VTHRESH=500E-3
X_U8_U174         POR_SHDN U8_N17794129 U8_LAT_RST OR2_BASIC_GEN PARAMS: VDD=1
+  VSS=0 VTHRESH=500E-3
X_U8_U197         U8_N17472720 U8_N17473372 U8_N17554543 COMP_BASIC_GEN PARAMS:
+  VDD=1 VSS=0 VTHRESH=0.5
X_U8_U869         U8_N17790999 U8_N17783686 U8_N17792564 AND2_BASIC_GEN PARAMS:
+  VDD=1 VSS=0 VTHRESH=500E-3
C_U8_C72         U8_N17473780 GND  0.001n IC=0 TC=0,0 
X_U8_U206         SWEN_FLTB U8_N17473676 INV_BASIC_GEN PARAMS: VDD=1 VSS=0
+  VTHRESH=500E-3
E_U8_GAIN53         U8_N17472813 0 VALUE {1 * V(U8_N17792564)}
R_U8_R5         U8_N17488442 U8_N17473697  {11u/(0.7*1n)} TC=0,0 
X_U8_U195         U8_AUTO_RTY OTSD U8_N17473291 AND2_BASIC_GEN PARAMS: VDD=1
+  VSS=0 VTHRESH=500E-3
X_U8_U10         U8_N17472689 U8_N17474142 d_d1_tps2662x PARAMS:
X_U7_S1    U7_N16779201 0 U7_N16779556 0 Thermal_Fault_U7_S1 
X_U7_U9         U7_N16779556 U7_N16779422 d_d1_tps2662x PARAMS:
X_U7_U13         U7_PW_OUT U7_N16805249 U7_N16779201 N16779475
+  srlatchrhp_basic_gen PARAMS: VDD=1 VSS=0 VTHRESH=0.5
G_U7_ABMI1         0 U7_N16779556 VALUE { (1u/(V(U7_DLY)+1u))    }
C_U7_C8         U7_N16825907 0  1n IC=0.1 TC=0,0 
C_U7_C1         U7_N16779556 0  1u IC=0 TC=0,0 
E_U7_E2         U7_PW_IN 0 U7_N16825907 0 2
X_U7_U3         U7_N16779556 U7_N16779600 U7_N16779614 COMP_BASIC_GEN PARAMS:
+  VDD=1 VSS=0 VTHRESH=0.5
X_U7_U10         0 U7_N16779556 d_d1_tps2662x PARAMS:
E_U7_ABM4         U7_N16825922 0 VALUE { IF( V(SWEN)>0.5,  
+ +(V(VIN_INT)-  
+ +V(OUT_INT))*V(ISENSE), 0)  }
X_U7_U1_U787         U7_U1_N00322 U7_U1_N00348 INV_BASIC_GEN PARAMS: VDD=1
+  VSS=0 VTHRESH=500E-3
X_U7_U1_U788         U7_N16869251 OTSD U7_U1_N05045 OR2_BASIC_GEN PARAMS: VDD=1
+  VSS=0 VTHRESH=500E-3
C_U7_U1_C13         U7_U1_N00344 0  1n IC=0 TC=0,0 
X_U7_U1_U7         U7_U1_N00458 U7_U1_N00344 d_d1_tps2662x PARAMS:
X_U7_U1_U12         U7_U1_N00322 U7_U1_N00344 OTSD AND2_BASIC_GEN PARAMS: VDD=1
+  VSS=0 VTHRESH=500E-3
E_U7_U1_GAIN2         U7_U1_N05454 0 VALUE {1 * V(U7_U1_N05045)}
R_U7_U1_R6         0 U7_U1_N00322  1E9 TC=0,0 
E_U7_U1_ABM16         U7_U1_N00602 0 VALUE { IF(V(U7_N16869251)>0.5, 1, 0)    }
R_U7_U1_R4         0 U7_U1_N00344  1E9 TC=0,0 
R_U7_U1_R113         U7_U1_N00602 U7_U1_N00322  {1.1m/(0.693*1n)} TC=0,0 
E_U7_U1_GAIN1         U7_U1_N00458 0 VALUE {1 * V(U7_U1_N00348)}
R_U7_U1_R5         U7_U1_N00458 U7_U1_N00344  {1.1m/(0.693*1n)} TC=0,0 
C_U7_U1_C76         U7_U1_N00322 0  1n IC=0 TC=0,0 
X_U7_U1_U6         U7_U1_N00602 U7_U1_N00322 d_d1_tps2662x PARAMS:
X_U7_U1_U9         U7_U1_N00322 U7_U1_N05454 d_d1_tps2662x PARAMS:
E_U7_ABM2         U7_N16779502 0 VALUE { IF(V(U7_PW_IN)>=1, 1, 0)    }
R_U7_R12         U7_DLY U7_N16779758  1k TC=0,0 
V_U7_V1         U7_N16779600 0 1
R_U7_R6         U7_PW_OUT U7_N16779502  10 TC=0,0 
X_U7_U46         RTY_TIME POR_SHDN U7_N16858912 OR2_BASIC_GEN PARAMS: VDD=1
+  VSS=0 VTHRESH=500E-3
C_U7_C7         U7_DLY 0  1n IC=0 TC=0,0 
E_U7_U173_ABM6         U7_U173_N06516 0 VALUE { IF( V(U7_N16805249)>0.5, 0,   
+ +IF(V(U7_N16779614)>0.5, 10,   
+ +V(U7_U173_N04050) ) )  }
C_U7_U173_C3         U7_U173_N04050 0  0.01n IC=0 TC=0,0 
E_U7_U173_ABM7         U7_N16805247 0 VALUE { IF(V(U7_U173_N04050) >0.5,0,1)   
+  }
R_U7_U173_R3         U7_U173_N06516 U7_U173_N04050  10 TC=0,0 
E_U7_U173_ABM8         U7_COMP 0 VALUE { IF(V(U7_U173_N04050) >0.5,1,0)    }
C_U7_C75         U7_N16805249 0  1n IC=0 TC=0,0 
X_U7_U8         U7_COMP U7_N16779201 U7_N16869251 AND2_BASIC_GEN PARAMS: VDD=1
+  VSS=0 VTHRESH=500E-3
C_U7_C2         U7_PW_OUT 0  1n IC=0 TC=0,0 
R_U7_R112         U7_N16858912 U7_N16805249  {1u/(0.7*1n)} TC=0,0 
V_U7_V2         U7_N16779422 0 1.5
E_U7_E1         U7_N16779758 0 TABLE { V(U7_PW_IN,0) } 
+ ( (0,100000m)(3,100000m)(4,72350m)(5, 13880m)(6,4315m) (7,2088m)
+  (8,1147m)(9,716m) (10, 473m) (12,256m) (14,154m) (16,100m) (18,68m) (20,49m)
+  (25,24.4m) (30,13.8m)(35, 8.64m)(40, 6.07m)(50, 3.52m)(60, 2.39m)(75,
+  1.792m)(100, 1.22m) )
R_U7_R13         U7_N16825907 U7_N16825922  100 TC=0,0 
V_V8         N17577921 GND {2x}
R_R12         SHDN_N AVDD_INT  700K TC=0,0 
E_ABM37         N17578626 0 VALUE { IF( V(POR)>0.5,   
+ + 4 ,0)   }
V_Vyyy         IN N17578571 0Vdc
E_E12         OVLO_INT 0 OVLO_OVCSEL GND 1
E_E8         SHDN_INT 0 SHDN_N GND 1
X_U1_U23         U1_UVLO_HIT U1_N17638834 d_d_tps2662x PARAMS:
R_U1_R26         U1_N17891741 SWEN_FLTB  {1u/(0.7*1n)} TC=0,0 
C_U1_C19         DVDT_LOW 0  1n IC=1 TC=0,0 
E_U1_ABM39         U1_REV_THR 0 VALUE { IF( V(VREV)<0.5,   
+ +(V(OUT_INT)-54m),(V(OUT_INT)+15m))   }
R_U1_R30         U1_N17840319 OVP  {100n/(0.69*1u)} TC=0,0 
X_U1_U831         U1_UV_OK POR POR_SHDN NAND2_BASIC_GEN PARAMS: VDD=1 VSS=0
+  VTHRESH=500E-3
R_U1_R23         U1_N17638467 U1_N17639120  {6.83u/(0.7*1n)} TC=0,0 
R_U1_R37         U1_N17891673 U1_N17891630  {1u/(0.7*1n)} TC=0,0 
C_U1_C22         U1_N17638653 0  1n IC=1 TC=0,0 
V_U1_V2         U1_N17837019 0 1.2
V_U1_V3         U1_N17837320 0 0.1
X_U1_U28         U1_N17798683 FLTB_OVR_DRV d_d_tps2662x PARAMS:
X_U1_U24         U1_N17638829 U1_UVLO_HIT d_d_tps2662x PARAMS:
X_U1_U8         SHDNB POR U1_UV_OK U1_N17638330 U1_N17638693 AND4_BASIC_GEN
+  PARAMS: VDD=1 VSS=0 VTHRESH=500E-3
C_U1_C23         OVP 0  1u IC=1 TC=0,0 
X_U1_U25         SW_OFF_PRE U1_N17891739 INV_BASIC_GEN PARAMS: VDD=1 VSS=0
+  VTHRESH=500E-3
R_U1_R34         U1_N17798683 U1_N17638990  {0.1u/(0.7*1n)} TC=0,0 
V_U1_V5         U1_N17866805 0 0.1
E_U1_GAIN35         U1_POR_HIT 0 VALUE {1 * V(U1_N17638653)}
R_U1_R25         U1_N17638255 DVDT_LOW  {0.5u/(0.7*1n)} TC=0,0 
C_U1_C20         U1_N17891630 0  1n IC=1 TC=0,0 
V_U1_VSHDN         U1_N17638657 0 1
C_U1_C16         SWEN_FLTB 0  1n IC=1 TC=0,0 
X_U1_U841         U1_N17891630 U1_N17891630 U1_N17891693 AND2_BASIC_GEN PARAMS:
+  VDD=1 VSS=0 VTHRESH=500E-3
R_U1_R24         U1_N17639203 SWEN  {1u/(0.7*1n)} TC=0,0 
X_U1_U18         U1_POR_HIT U1_N17638308 d_d_tps2662x PARAMS:
C_U1_C18         U1_N17638255 0  1n IC=1 TC=0,0 
E_U1_ABM43         U1_N17840319 0 VALUE { if({2x}<0.5,V(U1_N17847237),  
+ V(U1_N17840032))   }
X_U1_U840         U1_N17891628 U1_ILIM_OK U1_N17891607 U1_N17891846
+  AND3_BASIC_GEN PARAMS: VDD=1 VSS=0 VTHRESH=500E-3
R_U1_R39         VREV U1_N17638257  {63u/(0.7*1u)} TC=0,0 
X_U1_U34         U1_N17891739 U1_N17891775 U1_N17891741 AND2_BASIC_GEN PARAMS:
+  VDD=1 VSS=0 VTHRESH=500E-3
R_U1_R8         U1_N17638303 POR  {0.01u/(0.7*1n)} TC=0,0 
R_U1_R36         U1_N17891693 U1_N17891628  {0.5u/(0.7*1n)} TC=0,0 
V_U1_V1         U1_N17834116 0 0.8
C_U1_C13         U1_N17638330 0  1n IC=1 TC=0,0 
C_U1_C21         VREV 0  1u IC=1 TC=0,0 
C_U1_C15         SWEN 0  1n IC=1 TC=0,0 
C_U1_C12         U1_N17639448 0  1n IC=1 TC=0,0 
E_U1_GAIN38         U1_UVLO_HIT 0 VALUE {1 * V(U1_N17638775)}
X_U1_U839         UVLO_INT U1_N17866801 U1_N17866805 U1_N17638775
+  COMPHYS_BASIC_GEN PARAMS: VDD=1 VSS=0 VTHRESH=0.5
E_U1_GAIN32         U1_N17638467 0 VALUE {1 * V(SHDN_HIT)}
R_U1_R35         FLTB_OVR_DRV U1_N17697265  {0.1uu/(0.7*1n)} TC=0,0 
E_U1_GAIN41         U1_N17638891 0 VALUE {1 * V(U1_VREV_HIT)}
R_U1_R22         U1_N17638659 U1_N17638330  {1u/(0.7*1n)} TC=0,0 
R_U1_R28         U1_N17638693 U1_N17638255  {0.5u/(0.7*1n)} TC=0,0 
C_U1_C5         POR 0  1n IC=1 TC=0,0 
C_U1_C24         U1_N17847237 0  1u IC=1 TC=0,0 
X_U1_U838         U1_OVP_OK U1_N17891604 U1_N17891607 OR2_BASIC_GEN PARAMS:
+  VDD=1 VSS=0 VTHRESH=500E-3
X_U1_U20         SW_OFF_PRE U1_N17639201 INV_BASIC_GEN PARAMS: VDD=1 VSS=0
+  VTHRESH=500E-3
R_U1_R21         U1_N17639862 U1_N17639448  {1u/(0.7*1n)} TC=0,0 
X_U1_U833         OVLO_INT U1_N17837019 U1_N17837320 U1_OVP_3X
+  COMPHYS_BASIC_GEN PARAMS: VDD=1 VSS=0 VTHRESH=0.5
C_U1_C25         FLTB_OVR_DRV 0  1n IC=0 TC=0,0 
V_U1_V6         U1_N17866801 0 1.2
R_U1_R13         U1_N17638829 U1_UV_OK  {0.1u/(0.7*1n)} TC=0,0 
R_U1_R9         U1_N17638308 POR  {1u/(0.7*1n)} TC=0,0 
E_U1_ABM42         U1_N17638594 0 VALUE { IF(V(SHDN_INT)>  
+ +V(U1_N17638657), 1,  
+ +IF(V(SHDN_HIT)>0.5, IF(V(SHDN_INT)>(V(U1_N17638657)-V(U1_N17638635)), 1,
+  0), 0))  }
R_U1_R31         U1_OVP_3X U1_N17847237  {1.3u/(0.69*1u)} TC=0,0 
X_U1_U834         OVP U1_OVP_OK INV_BASIC_GEN PARAMS: VDD=1 VSS=0
+  VTHRESH=500E-3
E_U1_ABM38         U1_N17638554 0 VALUE { IF(V(VIN_INT)>  
+ +V(U1_N17639169), 1,  
+ +IF(V(U1_POR_HIT)>0.5, IF(V(VIN_INT)>(V(U1_N17639169)-V(U1_N17639154)), 1,
+  0), 0))  }
V_U1_VSEL_OVPhys2         U1_N17639154 0 110m
X_U1_U832         VIN_INT OVCL_TH U1_N17834116 U1_N17847972 COMPHYS_BASIC_GEN
+  PARAMS: VDD=1 VSS=0 VTHRESH=0.5
X_U1_U837         U1_N17638255 U1_ILIM_OK U1_N17639843 U1_N17639862
+  AND3_BASIC_GEN PARAMS: VDD=1 VSS=0 VTHRESH=500E-3
X_U1_U27         SW_OFF U1_N17891673 INV_BASIC_GEN PARAMS: VDD=1 VSS=0
+  VTHRESH=500E-3
X_U1_U30         U1_N17638257 U1_N17638891 d_d_tps2662x PARAMS:
R_U1_R14         U1_N17638834 U1_UV_OK  {0.1u/(0.7*1n)} TC=0,0 
X_U1_U26         SW_OFF U1_N17638659 INV_BASIC_GEN PARAMS: VDD=1 VSS=0
+  VTHRESH=500E-3
X_U1_U22         U1_N17638303 U1_POR_HIT d_d_tps2662x PARAMS:
R_U1_R12         U1_N17638551 SHDNB  {(1.56u+27.4*{Cdvdt})/(0.7*1n)} TC=0,0 
E_U1_GAIN40         U1_N17638990 0 VALUE {1 * V(U1_VREV_HIT)}
V_U1_V4         U1_N17852065 0 {x2}
R_U1_R32         U1_N17638594 SHDN_HIT  10 TC=0,0 
C_U1_C17         U1_N17891775 0  1n IC=1 TC=0,0 
X_U1_U31         U1_N17638891 U1_N17638896 d_d_tps2662x PARAMS:
C_U1_C7         U1_UV_OK 0  1n IC=1 TC=0,0 
C_U1_C27         U1_N17840032 0  1u IC=1 TC=0,0 
R_U1_R29         U1_N17638554 U1_N17638653  10 TC=0,0 
V_U1_V7         U1_N17891604 0 {x2}
V_U1_VSHDN1         U1_N17639169 0 2.53
V_U1_VSEL_OVPhys1         U1_N17638635 0 240m
C_U1_C26         SHDN_HIT 0  1n IC=1 TC=0,0 
R_U1_R27         U1_N17891846 U1_N17891775  {1u/(0.7*1n)} TC=0,0 
X_U1_U13         U1_REV_THR VIN_INT U1_VREV_HIT COMP_BASIC_GEN PARAMS: VDD=1
+  VSS=0 VTHRESH=0.5
X_U1_U32         U1_N17638467 U1_N17638551 d_d_tps2662x PARAMS:
R_U1_R33         U1_N17847972 U1_N17840032  {5u/(0.69*1u)} TC=0,0 
R_U1_R38         VREV U1_N17638896  {15u/(0.7*1u)} TC=0,0 
X_U1_U29         U1_N17697265 U1_N17638990 d_d_tps2662x PARAMS:
X_U1_U836         ILIM_OPEN ILIM_SHORT U1_ILIM_OK NOR2_BASIC_GEN PARAMS: VDD=1
+  VSS=0 VTHRESH=500E-3
X_U1_U21         U1_N17639201 U1_N17639448 U1_N17639203 AND2_BASIC_GEN PARAMS:
+  VDD=1 VSS=0 VTHRESH=500E-3
X_U1_U33         SHDNB U1_N17639120 d_d_tps2662x PARAMS:
X_U1_U835         U1_OVP_OK U1_N17852065 U1_N17639843 OR2_BASIC_GEN PARAMS:
+  VDD=1 VSS=0 VTHRESH=500E-3
C_U1_C14         SHDNB 0  1n IC=0 TC=0,0 
V_Vzzz         IN N17578354 0Vdc
.ENDS TPS259620_TRANS
*$
.subckt TPS259620_S16 1 2 3 4  
S_S16         3 4 1 2 _S16
RS_S16         1 2 1G
.MODEL         _S16 VSWITCH Roff=1e9 Ron=1m Voff=0.1 Von=0.9
.ends TPS259620_S16
*$
.subckt dV_by_dT_U2_S1 1 2 3 4  
S_U2_S1         3 4 1 2 _U2_S1
RS_U2_S1         1 2 1G
.MODEL         _U2_S1 VSWITCH Roff=1E7 Ron=62 Voff=0.1 Von=0.9
.ends dV_by_dT_U2_S1
*$
.subckt TPS259620_H1 1 2 3 4  
H_H1         3 4 VH_H1 1
VH_H1         1 2 0V
.ends TPS259620_H1
*$
.subckt MOS_U3_S2 1 2 3 4  
S_U3_S2         3 4 1 2 _U3_S2
RS_U3_S2         1 2 1G
.MODEL         _U3_S2 VSWITCH Roff=1e6 Ron=1.0 Voff=0.9 Von=0.1
.ends MOS_U3_S2
*$
.subckt MOS_U3_S3 1 2 3 4  
S_U3_S3         3 4 1 2 _U3_S3
RS_U3_S3         1 2 1G
.MODEL         _U3_S3 VSWITCH Roff=1e9 Ron=1.0 Voff=0.1 Von=0.9
.ends MOS_U3_S3
*$
.subckt MOS_U3_S4 1 2 3 4  
S_U3_S4         3 4 1 2 _U3_S4
RS_U3_S4         1 2 1G
.MODEL         _U3_S4 VSWITCH Roff=1e8 Ron=1.0 Voff=0.45 Von=0.55
.ends MOS_U3_S4
*$
.subckt MOS_U3_H1 1 2 3 4  
H_U3_H1         3 4 VH_U3_H1 1
VH_U3_H1         1 2 0V
.ends MOS_U3_H1
*$
.subckt MODE_FLTb_U8_H9 1 2 3 4  
H_U8_H9         3 4 VH_U8_H9 1
VH_U8_H9         1 2 0V
.ends MODE_FLTb_U8_H9
*$
.subckt MODE_FLTb_U8_S17 1 2 3 4  
S_U8_S17         3 4 1 2 _U8_S17
RS_U8_S17         1 2 1G
.MODEL         _U8_S17 VSWITCH Roff=1E8 Ron=1m Voff=0.1 Von=0.9
.ends MODE_FLTb_U8_S17
*$
.subckt MODE_FLTb_U8_S18 1 2 3 4  
S_U8_S18         3 4 1 2 _U8_S18
RS_U8_S18         1 2 1G
.MODEL         _U8_S18 VSWITCH Roff=1E8 Ron=0.01 Voff=0.1 Von=0.9