* PSpice Model Editor - Version 16.2.0
*$
* TPS22961 
*****************************************************************************
* (C) Copyright 2014 Texas Instruments Incorporated. All rights reserved.
*****************************************************************************
** This model is designed as an aid for customers of Texas Instruments.
** TI and its licensors and suppliers make no warranties, either expressed
** or implied, with respect to this model, including the warranties of
** merchantability or fitness for a particular purpose. The model is
** provided solely on an "as is" basis. The entire risk as to its quality
** and performance is with the customer
*****************************************************************************
*
** Released by: WEBENCH Design Center, Texas Instruments Inc.
* Part: TPS22961
* Date: 26FEB2014
* Model Type: Transient
* Simulator: PSpice
* Simulator Version: 16.2.0.p001
* EVM Order Number:
* EVM Users Guide: 
* Datasheet: 17 OCT 2013, REV 0.43 
*
* Model Version: Final 1.00
*
*****************************************************************************
*
* Updates:
*
* Final 1.00
* Release to Web
*
*****************************************************************************
* Model Usage Notes:
*
* 1. The following features have been modeled
*      a. Switching Characteristics and variation with VIN and VBIAS
*      b. RON and variation with VIN and VBIAS
*      c. VBIAS Quiescent Current v/s VIN at room temperature
*      d. VBIAS shutdown current v/s VIN at room temperature
*      e. VIN shutdown current v/s VIN at room temperature
*      f. Pull down resistance and variation with VIN v/s Time 
* 2. Temperature effects are note been modeled. 
*
*****************************************************************************
.SUBCKT TPS22961 ON VIN VOUT VBIAS GND
C_U13_C1         0 U13_N427858  1n  
E_U13_E10         U13_OFF_VB5 0 TABLE { V(U13_VIN_OFF, 0) } 
+ ( (0,0)(0.8,98u)(1.05,108u)(1.2,114u)(1.8,145u)(2.5,195u) )
X_U13_S1    U13_N427964 0 U13_N427858 0 CONTROL_U13_S1 
E_U13_E8         U13_TD_VB3 0 TABLE { V(U13_VIN_1, 0) } 
+ ( (0,0)(0.8,220u)(1.05,1000u) )
E_U13_ABM2         U13_N15843768 0 VALUE { IF(V(VBIAS)<=4,V(U13_OFF_VB3),
+  V(U13_OFF_VB5))    }
X_U13_U1         ON U13_RISING_THRESH U13_HYS U13_ON_INT1 COMPHYS_BASIC_GEN
+  PARAMS: VDD=1 VSS=0 VTHRESH=0.5
E_U13_ABM1         U13_N15835263 0 VALUE { IF( V(VBIAS)<=4,  V(U13_TD_VB3), 
+  V(U13_TD_VB5))    }
V_U13_V5         U13_N14524231 0 2
X_U13_U43         U13_N427858 ON_INT BUF_BASIC_GEN PARAMS: VDD=1 VSS=0
+  VTHRESH=0.5
X_U13_U44         U13_ON_INT1 ON_INT U13_N427944 AND2_BASIC_GEN PARAMS: VDD=1
+  VSS=0 VTHRESH=500E-3
E_U13_E1         U13_RISING_THRESH 0 TABLE { V(VBIAS, 0) } 
+ ( (2.7,0.825)(3,0.857)(3.6,0.918)(4,0.956)(5,1.05)(5.5,1.09) )
G_U13_G3         U13_N14524231 U13_N427858 U13_N15835263 0 1
E_U13_E7         U13_TD_VB5 0 TABLE { V(U13_VIN_1, 0) } 
+ ( (0,0)(0.8,1000u)(1.05,1000u)(1.2,1000u)(1.8,1000u)(2.5,1000u) )
C_U13_C3         0 U13_VIN_1  1n  
E_U13_E9         U13_OFF_VB3 0 TABLE { V(U13_VIN_OFF, 0) } 
+ ( (0,0)(0.8,112u)(1.05,100u) )
G_U13_G4         U13_N427858 0 U13_N15843768 0 1
R_U13_R2         U13_N15854411 U13_VIN_1  10 TC=0,0 
X_U13_U46         ON_INT U13_ON_INT1 U13_N427964 NOR2_BASIC_GEN PARAMS: VDD=1
+  VSS=0 VTHRESH=500E-3
R_U13_R3         U13_N15840620 U13_VIN_OFF  10 TC=0,0 
X_U13_S2    U13_N427944 0 U13_N427908 U13_N427858 CONTROL_U13_S2 
E_U13_E2         U13_HYS 0 TABLE { V(VBIAS, 0) } 
+ ( (2.7,0.084)(3,0.091)(3.6,0.105)(4,0.114)(5,0.139)(5.5,0.146) )
D_U13_D3         U13_N427858 U13_N14524231 DD 
C_U13_C4         0 U13_VIN_OFF  1n  
E_U13_ABM6         U13_N15854411 0 VALUE { IF(V(U13_ON_INT1) >= 0.5, V(VIN),0) 
+    }
V_U13_V4         U13_N427908 0 1
E_U13_ABM5         U13_N15840620 0 VALUE { IF(V(U13_ON_INT1) < 0.5, V(VIN),0)  
+   }
G_U3_G3         VIN GND TABLE { V(U3_N14552238, 0) } 
+ ( (0.8,0)(1.05,0)(2,0.00007u)(2.5,0.00045u)(3,0.00079u) )
G_U3_G2         VIN GND TABLE { V(U3_N14548749, 0) } 
+ ( (0.8,0.279u)(1.05,0.322u)(1.6,0.402u)(2,0.457u)(3,0.579u)(3.6,0.662u) )
E_U3_ABM5         U3_N14550194 0 VALUE { If (V(ON_INT)<0.5 &  
+ V(VBIAS) >=4,  
+ V(VIN) , 0)  }
R_U3_R1         U3_N14549380 U3_N14543258  10 TC=0,0 
R_U3_R2         U3_N14550194 U3_N14548749  10 TC=0,0 
C_U3_C1         0 U3_N14543258  1n  
R_U3_R3         U3_N14552252 U3_N14552238  10 TC=0,0 
E_U3_ABM6         U3_N14552252 0 VALUE { If (V(ON_INT)<0.5 &  
+ V(VBIAS) >=4,  
+ V(VIN) , 0)  }
C_U3_C2         0 U3_N14548749  1n  
C_U3_C3         0 U3_N14552238  1n  
G_U3_G1         VIN GND TABLE { V(U3_N14543258, 0) } 
+ ( (0.8,0.288u)(1.05,0.328u)(1.6,0.412u)(2,0.47u)(3,0.611u)(3.6,0.684u) )
E_U3_ABM4         U3_N14549380 0 VALUE { If (V(ON_INT)>=0.5 &  
+ V(VBIAS) >=4,  
+ V(VIN) , 0)  }
E_U2_E8         U2_K2 0 TABLE { V(U2_VIN_INT, 0) } 
+ ( (0,0)(0.8,7.945)(1.05,3) )
E_U2_E5         U2_TR_VB5 0 TABLE { V(U2_VIN_INT, 0) } 
+ ( (0,0)(0.8,36u)(1.05,41.6u)(1.2,44u)(1.8,46.5u)(2.5,42.1u) )
E_U2_E2         U2_VBIAS1 0 TABLE { V(VIN, 0) } 
+ ( (0.8,2.12m)(1.05,1.99m)(2,1.30m)(2.5,0.74m)(3,0) )
E_U2_E9         U2_RPD 0 TABLE { V(U2_N15883842, 0) } 
+ ( (3,263)(3.6,262)(4,262)(5,262) )
X_U2_U9         U2_N14526547 VOUT U2_ON_RES1 0 RVAR PARAMS:  RREF=1
E_U2_ABM9         U2_K 0 VALUE { IF(V(U2_VGATE)<0.8, V(U2_N15912525) , 1 )    }
E_U2_ABM6         U2_N15913809 0 VALUE { V(U2_N15913803)*V(U2_K)    }
E_U2_ABM2         U2_N15912525 0 VALUE { IF( V(VBIAS)<=4, V(U2_K2), V(U2_K1))  
+   }
E_U2_ABM1         U2_N15913803 0 VALUE { IF(
+  V(VBIAS)<=4,V(U2_TR_VB3),V(U2_TR_VB5))    }
E_U2_E3         U2_VBIAS2 0 TABLE { V(VIN, 0) } 
+ ( (0.8,0.3413m)(1.05,0.001m)(3,0.002m) )
E_U2_E6         U2_TR_VB3 0 TABLE { V(U2_VIN_INT, 0) } 
+ ( (0,0)(0.8,11.2u)(1.05,55.5u) )
E_U2_E7         U2_K1 0 TABLE { V(U2_VIN_INT, 0) } 
+ ( (0,0)(0.8,3.64)(1.05,3.15)(1.2,3.1)(1.8,3.5)(2.5,5.09) )
X_U2_U8         VOUT GND U2_RPD 0 RVAR PARAMS:  RREF=1
G_U2_G3         U2_N14524493 U2_VGATE U2_N15913809 0 1
D_U2_D7         U2_N14526547 VIN DD 
D_U2_D6         U2_VGATE U2_N14524493 DD 
E_U2_ABM5         U2_N15883842 0 VALUE { IF(V(ON_INT) <=0.5, V(VIN),0)    }
C_U2_C4         U2_N14526547 U2_VGATE  0.95n  
R_U2_R1         U2_N15912681 U2_VIN_INT  10 TC=0,0 
X_U2_S4    ON_INT 0 U2_VGATE U2_N14526547 DRIVER_U2_S4 
M_U2_M1         VIN U2_VGATE U2_N14526547 U2_N14526547 NMOS01           
E_U2_ABM3         U2_N15912681 0 VALUE { IF(V(ON_INT) >= 0.5, V(VIN),0)    }
E_U2_E26         U2_ON_RES1 0 VALUE { IF(V(VBIAS)>=4,
+  V(U2_VBIAS1),V(U2_VBIAS2)) }
C_U2_C1         0 U2_VIN_INT  1n  
E_U2_E19         U2_N14524493 0 VALUE { {IF((V(VBIAS)<3.3 &
+  V(VBIAS)>0.1),3,IF((V(VBIAS)<5.2 & V(VBIAS)>3.3),5,6))} }
C_U2_C5         U2_VGATE VIN  0.18n  
.ENDS TPS22961
*$
.subckt CONTROL_U13_S1 1 2 3 4  
S_U13_S1         3 4 1 2 _U13_S1
RS_U13_S1         1 2 1G
.MODEL         _U13_S1 VSWITCH Roff=100e6 Ron=1m Voff=0.2 Von=0.8
.ends CONTROL_U13_S1
*$
.subckt CONTROL_U13_S2 1 2 3 4  
S_U13_S2         3 4 1 2 _U13_S2
RS_U13_S2         1 2 1G
.MODEL         _U13_S2 VSWITCH Roff=100e6 Ron=1m Voff=0.2 Von=0.8
.ends CONTROL_U13_S2
*$
.subckt DRIVER_U2_S4 1 2 3 4  
S_U2_S4         3 4 1 2 _U2_S4
RS_U2_S4         1 2 1G
.MODEL         _U2_S4 VSWITCH Roff=1e9 Ron=1 Voff=0.8 Von=0.2
.ends DRIVER_U2_S4
*$
.SUBCKT COMPHYS_BASIC_GEN INP INM HYS OUT PARAMS: VDD=1 VSS=0 VTHRESH=0.5	
EIN INP1 INM1 INP INM 1 
EHYS INP1 INP2 VALUE { IF( V(1) > {VTHRESH},-V(HYS),0) }
EOUT OUT 0 VALUE { IF( V(INP2)>V(INM1), {VDD} ,{VSS}) }
R1 OUT 1 1
C1 1 0 5n
RINP1 INP1 0 1K
.ENDS COMPHYS_BASIC_GEN
*$
.MODEL DD D( IS=1F N=0.01 TT = 10p )
*$
.model NMOS01 NMOS
+ VTO     = 0.8
+ KP      = 136
+ LAMBDA  = 0.001
*$
.model PMOS01 PMOS
+ VTO     = -0.4
+ KP      = 8.5
+ LAMBDA  = 0.001
*$
.SUBCKT AND2_BASIC_GEN A B Y PARAMS: VDD=1 VSS=0 VTHRESH=0.5 
E_ABMGATE    YINT 0 VALUE {{IF(V(A) > {VTHRESH}  &  
+ V(B) > {VTHRESH},{VDD},{VSS})}}
RINT YINT Y 1
CINT Y 0 1n
.ENDS AND2_BASIC_GEN
*$
.SUBCKT INV_BASIC_GEN A  Y PARAMS: VDD=1 VSS=0 VTHRESH=0.5 
E_ABMGATE    YINT 0 VALUE {{IF(V(A) > {VTHRESH} , 
+ {VSS},{VDD})}}
RINT YINT Y 1
CINT Y 0 1n
.ENDS INV_BASIC_GEN
*$
.SUBCKT BUF_BASIC_GEN A  Y PARAMS: VDD=1 VSS=0 VTHRESH=0.5 
E_ABMGATE    YINT 0 VALUE {{IF(V(A) > {VTHRESH} , 
+ {VDD},{VSS})}}
RINT YINT Y 1
CINT Y 0 1n
.ENDS BUF_BASIC_GEN
*$
.SUBCKT NOR2_BASIC_GEN A B Y PARAMS: VDD=1 VSS=0 VTHRESH=0.5 
E_ABMGATE    YINT 0 VALUE {{IF(V(A) > {VTHRESH}  |  
+ V(B) > {VTHRESH},{VSS},{VDD})}}
RINT YINT Y 1
CINT Y 0 1n
.ENDS NOR2_BASIC_GEN
*$
.subckt rvar 101 102 201 202 Params: Rref=1
* nodes : 101 102 : nodes between which variable resistance is placed
* 201 202 : nodes to whose voltage the resistance is proportional
* parameters : rref : reference value of the resistance
rin 201 202 1G; input resistance
r 301 0 {rref}
fcopy 0 301 vsense 1; copy output current thru Z
eout 101 106 poly(2) 201 202 301 0 0 0 0 0 1; multiply VoverZ with Vctrl
vsense 106 102 0; sense iout
.ends
*$
