* PSpice Model Editor - Version 16.2.0
*$
* TPS22901 
*****************************************************************************
* (C) Copyright 2013 Texas Instruments Incorporated. All rights reserved.
*****************************************************************************
** This model is designed as an aid for customers of Texas Instruments.
** TI and its licensors and suppliers make no warranties, either expressed
** or implied, with respect to this model, including the warranties of
** merchantability or fitness for a particular purpose. The model is
** provided solely on an "as is" basis. The entire risk as to its quality
** and performance is with the customer
*****************************************************************************
*
** Released by: WEBENCH Design Center, Texas Instruments Inc.
* Part: TPS22901
* Date: 22MAR2013 
* Model Type: Transient
* Simulator: PSpice
* Simulator Version: 16.2.0.p001
* EVM Order Number: TPS22901/02/02B EVM
* EVM Users Guide: SLVU287A - January 2009 - Revised March 2009
* Datasheet: SLVS803C - NOVEMBER 2008 - REVISED DECEMBER 2012
*
* Model Version: Final 1.00
*
*****************************************************************************
*
* Updates:
*
* Final 1.00
* Release to Web
*
*****************************************************************************
*
* Model Usage Notes:
*
* 1. The following features have been modeled
*      a. Switching Characteristics and variation with VIN
*      b. RON and variation with VIN
*      c. Quiescent Current v/s VIN at room temperature
*      d. IIN(OFF) v/s VIN at room temperature
* 2. Temperature effects are note been modeled. 
*
*****************************************************************************
.SUBCKT TPS22901 ON VIN VOUT GND
X_U1_U44         U1_ON_INT1 ON_INT U1_N427944 AND2_BASIC_GEN PARAMS: VDD=1
+  VSS=0 VTHRESH=500E-3
E_U1_ABM5         U1_N14557767 0 VALUE { IF(V(U1_ON_INT1) < 0.5, V(VIN),0)    }
X_U1_S1    U1_N427964 0 U1_N427858 0 CONTROL_U1_S1 
D_U1_D3         U1_N427858 U1_N14507001 DD 
G_U1_G4         U1_N427858 0 TABLE { V(U1_N14557703, 0) } 
+ ( (0,0)(1.1,1000u)(1.2,1000u)(1.8,1000u)(2.5,1000u)(3,1000u)(3.6,1000u) )
X_U1_S2    U1_N427944 0 U1_N427908 U1_N427858 CONTROL_U1_S2 
E_U1_ABM4         U1_N14556373 0 VALUE { IF(V(U1_ON_INT1) >= 0.5, V(VIN),0)   
+  }
X_U1_U1         ON U1_N00239 U1_N00271 U1_ON_INT1 COMPHYS_BASIC_GEN PARAMS:
+  VDD=1 VSS=0 VTHRESH=0.5
R_U1_R3         U1_N14557767 U1_N14557703  10 TC=0,0 
X_U1_U46         ON_INT U1_ON_INT1 U1_N427964 NOR2_BASIC_GEN PARAMS: VDD=1
+  VSS=0 VTHRESH=500E-3
G_U1_G3         U1_N14507001 U1_N427858 TABLE { V(U1_N14556309, 0) } 
+ ( (0,0)(1.1,50u)(1.2,45u)(1.8,28u)(2.5,35u)(3,35u)(3.6,35u) )
V_U1_V5         U1_N14507001 0 2
C_U1_C4         0 U1_N14557703  1n  
V_U1_V1         U1_N00239 0 0.6
X_U1_U43         U1_N427858 ON_INT BUF_BASIC_GEN PARAMS: VDD=1 VSS=0
+  VTHRESH=0.5
R_U1_R2         U1_N14556373 U1_N14556309  10 TC=0,0 
V_U1_V2         U1_N00271 0 0.1
C_U1_C3         0 U1_N14556309  1n  
C_U1_C1         0 U1_N427858  1n  
V_U1_V4         U1_N427908 0 1
X_U2_S2    U2_N14546746 0 U2_N14519107 VOUT DRIVER_U2_S2 
E_U2_ABM3         U2_N14554417 0 VALUE { IF(V(ON_INT) >= 0.5, V(VIN),0)    }
E_U2_ABM1         U2_N14524493 0 VALUE { V(VIN)     }
G_U2_G2         U2_VGATE 0 TABLE { V(U2_N14553129, 0) } 
+ ( (0,0)(1.1,3.45u)(1.2,4.2u)(1.8,10u)(2.5,17u)(3,24u)(3.6,32u) )
M_U2_M2         U2_N14519107 U2_VGATE VIN VIN PMOS01           
R_U2_R1         U2_N14554417 U2_N14553129  10 TC=0,0 
D_U2_D4         U2_N14519107 VIN DD 
R_U2_R2         GND 0  1m TC=0,0 
C_U2_C1         0 U2_N14553129  1n  
E_U2_ABM2         U2_N14546746 0 VALUE { V(VIN)     }
C_U2_C4         U2_N14519107 U2_VGATE  0.303n  
D_U2_D6         U2_VGATE U2_N14524493 DD 
C_U2_C5         U2_VGATE VIN  0.243n  
G_U2_ABM2I1         U2_N14524493 U2_VGATE VALUE { IF ( V(ON_INT) < 0.5 ,  
+ (840 * V(VIN) - 575) * 1u , 0)   }
D_U2_D5         0 U2_VGATE DD 
R_U3_R2         U3_N14550194 U3_N14548749  10 TC=0,0 
C_U3_C2         0 U3_N14548749  1n  
G_U3_G2         VIN GND TABLE { V(U3_N14548749, 0) } 
+ ( (0,0)(0.79,0)(0.8,0.01u)(1,0.015u)(2.5,0.06u)(3, 0.078u)(3.6, 0.11u) )
G_U3_G1         VIN GND TABLE { V(U3_N14543258, 0) } 
+ ( (0,0)(0.79,0)(0.8,0.016u)(1,0.025u)(2.5,0.11u)(3, 0.142u)(3.6, 0.18u) )
C_U3_C1         0 U3_N14543258  1n  
E_U3_ABM1         U3_N14549380 0 VALUE { IF (V(ON_INT) >= 0.5 , V(VIN) ,  0)   
+  }
E_U3_ABM2         U3_N14550194 0 VALUE { IF (V(ON_INT) < 0.5 , V(VIN) ,  0)   
+  }
R_U3_R1         U3_N14549380 U3_N14543258  10 TC=0,0 
.ENDS TPS22901
*$
.subckt CONTROL_U1_S1 1 2 3 4  
S_U1_S1         3 4 1 2 _U1_S1
RS_U1_S1         1 2 1G
.MODEL         _U1_S1 VSWITCH Roff=100e6 Ron=1m Voff=0.2 Von=0.8
.ends CONTROL_U1_S1
*$
.subckt CONTROL_U1_S2 1 2 3 4  
S_U1_S2         3 4 1 2 _U1_S2
RS_U1_S2         1 2 1G
.MODEL         _U1_S2 VSWITCH Roff=100e6 Ron=1m Voff=0.2 Von=0.8
.ends CONTROL_U1_S2
*$
.subckt DRIVER_U2_S2 1 2 3 4  
S_U2_S2         3 4 1 2 _U2_S2
RS_U2_S2         1 2 1G
.MODEL         _U2_S2 VSWITCH Roff=40m Ron=1m Voff=1.9 Von=1.4
.ends DRIVER_U2_S2
*$
.SUBCKT COMPHYS_BASIC_GEN INP INM HYS OUT PARAMS: VDD=1 VSS=0 VTHRESH=0.5	
EIN INP1 INM1 INP INM 1 
EHYS INP1 INP2 VALUE { IF( V(1) > {VTHRESH},-V(HYS),0) }
EOUT OUT 0 VALUE { IF( V(INP2)>V(INM1), {VDD} ,{VSS}) }
R1 OUT 1 1
C1 1 0 5n
RINP1 INP1 0 1K
.ENDS COMPHYS_BASIC_GEN
*$
.MODEL DD D( IS=1F N=0.01 TT = 10p )
*$
.model NMOS01 NMOS
+ VTO     = 1u
+ KP      = 500k
+ LAMBDA  = 0.001
*$
.model PMOS01 PMOS
+ VTO     = -0.4
+ KP      = 8.5
+ LAMBDA  = 0.001
*$
.SUBCKT AND2_BASIC_GEN A B Y PARAMS: VDD=1 VSS=0 VTHRESH=0.5 
E_ABMGATE    YINT 0 VALUE {{IF(V(A) > {VTHRESH}  &  
+ V(B) > {VTHRESH},{VDD},{VSS})}}
RINT YINT Y 1
CINT Y 0 1n
.ENDS AND2_BASIC_GEN
*$
.SUBCKT INV_BASIC_GEN A  Y PARAMS: VDD=1 VSS=0 VTHRESH=0.5 
E_ABMGATE    YINT 0 VALUE {{IF(V(A) > {VTHRESH} , 
+ {VSS},{VDD})}}
RINT YINT Y 1
CINT Y 0 1n
.ENDS INV_BASIC_GEN
*$
.SUBCKT BUF_BASIC_GEN A  Y PARAMS: VDD=1 VSS=0 VTHRESH=0.5 
E_ABMGATE    YINT 0 VALUE {{IF(V(A) > {VTHRESH} , 
+ {VDD},{VSS})}}
RINT YINT Y 1
CINT Y 0 1n
.ENDS BUF_BASIC_GEN
*$
.SUBCKT NOR2_BASIC_GEN A B Y PARAMS: VDD=1 VSS=0 VTHRESH=0.5 
E_ABMGATE    YINT 0 VALUE {{IF(V(A) > {VTHRESH}  |  
+ V(B) > {VTHRESH},{VSS},{VDD})}}
RINT YINT Y 1
CINT Y 0 1n
.ENDS NOR2_BASIC_GEN
*$

