*$
* TPS2121
*****************************************************************************
* (C) Copyright 2018 Texas Instruments Incorporated. All rights reserved.
*****************************************************************************
** This model is designed as an aid for customers of Texas Instruments.
** TI and its licensors and suppliers make no warranties, either expressed
** or implied, with respect to this model, including the warranties of
** merchantability or fitness for a particular purpose. The model is
** provided solely on an "as is" basis. The entire risk as to its quality
** and performance is with the customer.
*****************************************************************************
*
** Released by: WEBENCH Design Center, Texas Instruments Inc.
* Part: TPS2121
* Date: 27DEC2018
* Model Type: Transient
* Simulator: PSPICE
* Simulator Version: 16.2.0.s003
* EVM Order Number:
* EVM Users Guide:
* Datasheet:
*
* Model Version: Final 1.00
*
*****************************************************************************
*
* Updates:
*
* Final 1.00
* Release to Web
*
*****************************************************************************
* Model Usage Notes:
*
* A. Features that have been modelled
*	1. Device functional mode
*	2. Input setting time and Output soft-start control
*	3. Current Limit 
*	4. Over and under voltage
*	5. Fast Reverse current blocking
*	6. Output voltage dip and fast switch over control
*	
*
* B. Model Limitations and Features that haven't been modelled
*	1. Thermal operation and quiscent current are not modelled
*
*****************************************************************************
*$
.SUBCKT TPS2121_TRANS CP2 GND ILIM IN1 IN2 OV1 OV2 PR1 SS ST VOUT_0 VOUT_1  
X_U_GENVIN_U32         ENIN1 TSET U_GENVIN_N123650 AND2_BASIC_GEN PARAMS: VDD=1
+  VSS=0 VTHRESH=500E-3
X_U_GENVIN_U73         U_GENVIN_N227046 U_GENVIN_N227058 U_GENVIN_N198584
+  AND2_BASIC_GEN PARAMS: VDD=1 VSS=0 VTHRESH=500E-3
X_U_GENVIN_U29         U_GENVIN_N70721 VOUT U_GENVIN_OK2 COMP_BASIC_GEN PARAMS:
+  VDD=1 VSS=0 VTHRESH=0.5
X_U_GENVIN_U30         VOUT U_GENVIN_N191144 U_GENVIN_INIT_IN1 COMP_BASIC_GEN
+  PARAMS: VDD=1 VSS=0 VTHRESH=0.5
V_U_GENVIN_V18         U_GENVIN_N128000 0 1
X_U_GENVIN_U41         U_GENVIN_N126343 N126639 U_GENVIN_C1 U_GENVIN_N121735
+  U_GENVIN_ENIN1B 0 DFFSR_RHPBASIC_GEN PARAMS: VDD=1 VSS=0 VTHRESH=500E-3
X_U_GENVIN_U27         VOUT U_GENVIN_N70847 REVERSE1 COMP_BASIC_GEN PARAMS:
+  VDD=1 VSS=0 VTHRESH=0.5
X_U_GENVIN_U48         ENIN2 U_GENVIN_ENIN2B INV_BASIC_GEN PARAMS: VDD=1 VSS=0
+  VTHRESH=500E-3
X_U_GENVIN_U62         U_GENVIN_N165367 U_GENVIN_N198004 U_GENVIN_N165395
+  OR2_BASIC_GEN PARAMS: VDD=1 VSS=0 VTHRESH=500E-3
X_U_GENVIN_U44         U_GENVIN_N123650 U_GENVIN_C1 BUF_DELAY_BASIC_GEN PARAMS:
+  VDD=1 VSS=0 VTHRESH=0.5 DELAY=1u
X_U_GENVIN_U37         U_GENVIN_N132222 U_GENVIN_N132230 U_GENVIN_SET2
+  AND2_BASIC_GEN PARAMS: VDD=1 VSS=0 VTHRESH=500E-3
V_U_GENVIN_V16         U_GENVIN_N70917 IN2 3mV
X_U_GENVIN_U68         U_GENVIN_N164081 ENGATE1 BUF_DELAY_BASIC_GEN PARAMS:
+  VDD=1 VSS=0 VTHRESH=0.5 DELAY=2u
X_U_GENVIN_U51         U_GENVIN_SET1 U_GENVIN_SET1B INV_BASIC_GEN PARAMS: VDD=1
+  VSS=0 VTHRESH=500E-3
X_U_GENVIN_U74         ENIN2 U_GENVIN_SET1B U_GENVIN_N226964 AND2_BASIC_GEN
+  PARAMS: VDD=1 VSS=0 VTHRESH=500E-3
V_U_GENVIN_V19         U_GENVIN_N132390 0 1
X_U_GENVIN_U42         U_GENVIN_C1 U_GENVIN_C1B INV_BASIC_GEN PARAMS: VDD=1
+  VSS=0 VTHRESH=500E-3
X_U_GENVIN_U75         U_GENVIN_N226964 U_GENVIN_OK2 U_GENVIN_N165367
+  AND2_BASIC_GEN PARAMS: VDD=1 VSS=0 VTHRESH=500E-3
V_U_GENVIN_V13         DRAIN2 U_GENVIN_N70721 0
V_U_GENVIN_V17         U_GENVIN_N121735 0 1
X_U_GENVIN_U28         VOUT U_GENVIN_N70917 REVERSE2 COMP_BASIC_GEN PARAMS:
+  VDD=1 VSS=0 VTHRESH=0.5
X_U_GENVIN_U49         U_GENVIN_N132422 U_GENVIN_C2 BUF_DELAY_BASIC_GEN PARAMS:
+  VDD=1 VSS=0 VTHRESH=0.5 DELAY=1u
X_U_GENVIN_U40         ENIN1 U_GENVIN_SET1B U_GENVIN_N210036 AND2_BASIC_GEN
+  PARAMS: VDD=1 VSS=0 VTHRESH=500E-3
X_U_GENVIN_U38         U_GENVIN_N168674 U_GENVIN_N164081 N169026 AND2_BASIC_GEN
+  PARAMS: VDD=1 VSS=0 VTHRESH=500E-3
X_U_GENVIN_U56         U_GENVIN_CHG2 N182050 U_GENVIN_PRECHG2 U_GENVIN_N182122
+  V97_IN 0 DFFSR_RHPBASIC_GEN PARAMS: VDD=1 VSS=0 VTHRESH=500E-3
X_U_GENVIN_U63         U_GENVIN_N210036 U_GENVIN_OK1 U_GENVIN_N162863
+  AND2_BASIC_GEN PARAMS: VDD=1 VSS=0 VTHRESH=500E-3
X_U_GENVIN_U54         U_GENVIN_CHG1 N181447 U_GENVIN_PRECHG1 U_GENVIN_N178034
+  V97_IN 0 DFFSR_RHPBASIC_GEN PARAMS: VDD=1 VSS=0 VTHRESH=500E-3
E_U_GENVIN_ABM7         DRAIN1 0 VALUE { IF(V(U_GENVIN_SET1) > 0.5,0,  
+ IF(V(U_GENVIN_CHG1) > 0.5,V(DVDT),  
+ V(IN1)))  }
X_U_GENVIN_U67         U_GENVIN_N198584 U_GENVIN_INIT_IN2 U_GENVIN_N198004
+  AND2_BASIC_GEN PARAMS: VDD=1 VSS=0 VTHRESH=500E-3
X_U_GENVIN_U52         U_GENVIN_SET2 U_GENVIN_SET2B INV_BASIC_GEN PARAMS: VDD=1
+  VSS=0 VTHRESH=500E-3
V_U_GENVIN_V14         DRAIN1 U_GENVIN_N70771 0
V_U_GENVIN_V24         IN2 U_GENVIN_N196614 0.5
X_U_GENVIN_U57         U_GENVIN_OK1 U_GENVIN_OK1B INV_BASIC_GEN PARAMS: VDD=1
+  VSS=0 VTHRESH=500E-3
X_U_GENVIN_U69         U_GENVIN_N165395 ENGATE2 BUF_DELAY_BASIC_GEN PARAMS:
+  VDD=1 VSS=0 VTHRESH=0.5 DELAY=2u
V_U_GENVIN_V22         U_GENVIN_N182122 0 1
X_U_GENVIN_U33         ENIN1 CHG_F2 U_GENVIN_PRECHG1 AND2_BASIC_GEN PARAMS:
+  VDD=1 VSS=0 VTHRESH=500E-3
V_U_GENVIN_V21         U_GENVIN_N178034 0 1
X_U_GENVIN_U35         ENIN2 CHG_F2 U_GENVIN_PRECHG2 AND2_BASIC_GEN PARAMS:
+  VDD=1 VSS=0 VTHRESH=500E-3
X_U_GENVIN_U53         ENIN2 SEL_CTRL U_GENVIN_N215316 AND2_BASIC_GEN PARAMS:
+  VDD=1 VSS=0 VTHRESH=500E-3
X_U_GENVIN_U31         VOUT U_GENVIN_N196614 U_GENVIN_INIT_IN2 COMP_BASIC_GEN
+  PARAMS: VDD=1 VSS=0 VTHRESH=0.5
X_U_GENVIN_U50         N132572 U_GENVIN_N132230 U_GENVIN_C2B U_GENVIN_N132532
+  U_GENVIN_ENIN2B 0 DFFSR_RHPBASIC_GEN PARAMS: VDD=1 VSS=0 VTHRESH=500E-3
X_U_GENVIN_U64         U_GENVIN_N165395 U_GENVIN_N170526 BUF_DELAY_BASIC_GEN
+  PARAMS: VDD=1 VSS=0 VTHRESH=0.5 DELAY=5u
X_U_GENVIN_U34         U_GENVIN_N126343 U_GENVIN_N128044 U_GENVIN_SET1
+  AND2_BASIC_GEN PARAMS: VDD=1 VSS=0 VTHRESH=500E-3
E_U_GENVIN_ABM8         DRAIN2 0 VALUE { IF(V(U_GENVIN_SET2) > 0.5,0,  
+ IF(V(U_GENVIN_CHG2) > 0.5,V(DVDT),  
+ V(IN2)))  }
X_U_GENVIN_U43         ENIN1 U_GENVIN_ENIN1B INV_BASIC_GEN PARAMS: VDD=1 VSS=0
+  VTHRESH=500E-3
X_U_GENVIN_U26         U_GENVIN_N70771 VOUT U_GENVIN_OK1 COMP_BASIC_GEN PARAMS:
+  VDD=1 VSS=0 VTHRESH=0.5
X_U_GENVIN_U59         ENIN1 SEL_CTRL U_GENVIN_N227046 AND2_BASIC_GEN PARAMS:
+  VDD=1 VSS=0 VTHRESH=500E-3
X_U_GENVIN_U46         U_GENVIN_N132222 N132474 U_GENVIN_C2 U_GENVIN_N132390
+  U_GENVIN_ENIN2B 0 DFFSR_RHPBASIC_GEN PARAMS: VDD=1 VSS=0 VTHRESH=500E-3
X_U_GENVIN_U70         U_GENVIN_OK2B IN1OK U_GENVIN_N217716 AND2_BASIC_GEN
+  PARAMS: VDD=1 VSS=0 VTHRESH=500E-3
X_U_GENVIN_U39         U_GENVIN_N170526 U_GENVIN_N165395 N170534 AND2_BASIC_GEN
+  PARAMS: VDD=1 VSS=0 VTHRESH=500E-3
V_U_GENVIN_V20         U_GENVIN_N132532 0 1
X_U_GENVIN_U66         U_GENVIN_N194867 U_GENVIN_INIT_IN1 U_GENVIN_N173378
+  AND2_BASIC_GEN PARAMS: VDD=1 VSS=0 VTHRESH=500E-3
V_U_GENVIN_V23         IN1 U_GENVIN_N191144 0.5
X_U_GENVIN_U36         ENIN2 TSET U_GENVIN_N132422 AND2_BASIC_GEN PARAMS: VDD=1
+  VSS=0 VTHRESH=500E-3
V_U_GENVIN_V15         U_GENVIN_N70847 IN1 3mV
X_U_GENVIN_U60         U_GENVIN_N162863 U_GENVIN_N173378 U_GENVIN_N164081
+  OR2_BASIC_GEN PARAMS: VDD=1 VSS=0 VTHRESH=500E-3
X_U_GENVIN_U72         U_GENVIN_OK1B IN2OK U_GENVIN_N227058 AND2_BASIC_GEN
+  PARAMS: VDD=1 VSS=0 VTHRESH=500E-3
X_U_GENVIN_U71         U_GENVIN_N215316 U_GENVIN_N217716 U_GENVIN_N194867
+  AND2_BASIC_GEN PARAMS: VDD=1 VSS=0 VTHRESH=500E-3
X_U_GENVIN_U47         U_GENVIN_C2 U_GENVIN_C2B INV_BASIC_GEN PARAMS: VDD=1
+  VSS=0 VTHRESH=500E-3
X_U_GENVIN_U45         N128040 U_GENVIN_N128044 U_GENVIN_C1B U_GENVIN_N128000
+  U_GENVIN_ENIN1B 0 DFFSR_RHPBASIC_GEN PARAMS: VDD=1 VSS=0 VTHRESH=500E-3
X_U_GENVIN_U58         U_GENVIN_OK2 U_GENVIN_OK2B INV_BASIC_GEN PARAMS: VDD=1
+  VSS=0 VTHRESH=500E-3
X_U_GENVIN_U65         U_GENVIN_N164081 U_GENVIN_N168674 BUF_DELAY_BASIC_GEN
+  PARAMS: VDD=1 VSS=0 VTHRESH=0.5 DELAY=5u
X_U2         N104302 N104791 BUF_DELAY_BASIC_GEN PARAMS: VDD=1 VSS=0
+  VTHRESH=0.5 DELAY=2u
R_R1         VOUT_0 VOUT_1  1m TC=0,0 
X_U1         ENGATE1 N104302 INV_BASIC_GEN PARAMS: VDD=1 VSS=0 VTHRESH=500E-3
R_R3         VOUT VOUT_0  1m TC=0,0 
X_U_LOGIC_U41         U_LOGIC_CP2CMPB U_LOGIC_PR1CMPB U_LOGIC_N16944455
+  AND2_BASIC_GEN PARAMS: VDD=1 VSS=0 VTHRESH=500E-3
X_U_LOGIC_U39         U_LOGIC_N16893869 U_LOGIC_N16893808 ENIN2 OR2_BASIC_GEN
+  PARAMS: VDD=1 VSS=0 VTHRESH=500E-3
X_U_LOGIC_U32         U_LOGIC_IN2OKB IN2OK INV_BASIC_GEN PARAMS: VDD=1 VSS=0
+  VTHRESH=500E-3
X_U_LOGIC_U43         U_LOGIC_CP2CMP U_LOGIC_PR1CMP U_LOGIC_N16947164
+  AND2_BASIC_GEN PARAMS: VDD=1 VSS=0 VTHRESH=500E-3
E_U_LOGIC_ABM8         U_LOGIC_CP2_TH 0 VALUE { IF ( V(U_LOGIC_CP2CMP) < 0.5,
+  1.1, 1.08)    }
X_U_LOGIC_U44         U_LOGIC_N16947164 U_LOGIC_XCOMPB U_LOGIC_N16949456
+  AND2_BASIC_GEN PARAMS: VDD=1 VSS=0 VTHRESH=500E-3
X_U_LOGIC_U47         IN1OK IN2OK U_LOGIC_N16954284 AND2_BASIC_GEN PARAMS:
+  VDD=1 VSS=0 VTHRESH=500E-3
X_U_LOGIC_U46         U_LOGIC_N16950438 U_LOGIC_N16951095 U_LOGIC_PRIO
+  OR2_BASIC_GEN PARAMS: VDD=1 VSS=0 VTHRESH=500E-3
X_U_LOGIC_U48         U_LOGIC_N16954284 U_LOGIC_PRIO U_LOGIC_N16890589
+  AND2_BASIC_GEN PARAMS: VDD=1 VSS=0 VTHRESH=500E-3
X_U_LOGIC_U45         U_LOGIC_N16865754 U_LOGIC_N16949456 U_LOGIC_N16950438
+  OR2_BASIC_GEN PARAMS: VDD=1 VSS=0 VTHRESH=500E-3
X_U_LOGIC_U3         U_LOGIC_IN1IN U_LOGIC_UVLO_TH1 U_LOGIC_UV1B COMP_BASIC_GEN
+  PARAMS: VDD=1 VSS=0 VTHRESH=0.5
X_U_LOGIC_U28         U_LOGIC_UV2 U_LOGIC_UV2B INV_BASIC_GEN PARAMS: VDD=1
+  VSS=0 VTHRESH=500E-3
X_U_LOGIC_U31         U_LOGIC_IN1OKB IN1OK INV_BASIC_GEN PARAMS: VDD=1 VSS=0
+  VTHRESH=500E-3
X_U_LOGIC_U18         U_LOGIC_IN1IN U_LOGIC_IN2IN U_LOGIC_VCOMP COMP_BASIC_GEN
+  PARAMS: VDD=1 VSS=0 VTHRESH=0.5
X_U_LOGIC_U10         U_LOGIC_PR1IN U_LOGIC_PR1_TH U_LOGIC_PR1CMP
+  COMP_BASIC_GEN PARAMS: VDD=1 VSS=0 VTHRESH=0.5
E_U_LOGIC_E3         U_LOGIC_IN1IN 0 IN1 GND 1
X_U_LOGIC_U30         U_LOGIC_UV2B U_LOGIC_OVP2 U_LOGIC_IN2OKB OR2_BASIC_GEN
+  PARAMS: VDD=1 VSS=0 VTHRESH=500E-3
X_U_LOGIC_U8         U_LOGIC_OVP2 U_LOGIC_OVPB2 INV_BASIC_GEN PARAMS: VDD=1
+  VSS=0 VTHRESH=500E-3
X_U_LOGIC_U17         U_LOGIC_CP2IN U_LOGIC_PR1IN U_LOGIC_XCOMP COMP_BASIC_GEN
+  PARAMS: VDD=1 VSS=0 VTHRESH=0.5
E_U_LOGIC_E7         U_LOGIC_PR1IN 0 PR1 GND 1
X_U_LOGIC_U35         IN1OK U_LOGIC_IN2OKB U_LOGIC_N16891491 AND2_BASIC_GEN
+  PARAMS: VDD=1 VSS=0 VTHRESH=500E-3
X_U_LOGIC_U4         U_LOGIC_IN2IN U_LOGIC_UVLO_TH2 U_LOGIC_UV2 COMP_BASIC_GEN
+  PARAMS: VDD=1 VSS=0 VTHRESH=0.5
E_U_LOGIC_ABM2         U_LOGIC_UVLO_TH1 0 VALUE { IF ( V(U_LOGIC_UV1B) < 0.5,
+  2.5, 2.4)    }
E_U_LOGIC_E5         U_LOGIC_IN2IN 0 IN2 GND 1
X_U_LOGIC_U49         IN1OK IN2OK U_LOGIC_N16957214 AND2_BASIC_GEN PARAMS:
+  VDD=1 VSS=0 VTHRESH=500E-3
X_U_LOGIC_U26         U_LOGIC_XCOMP U_LOGIC_XCOMPB INV_BASIC_GEN PARAMS: VDD=1
+  VSS=0 VTHRESH=500E-3
X_U_LOGIC_U7         U_LOGIC_N16808510 U_LOGIC_OVP_TH1 U_LOGIC_OVP1
+  COMP_BASIC_GEN PARAMS: VDD=1 VSS=0 VTHRESH=0.5
E_U_LOGIC_ABM7         U_LOGIC_PR1_TH 0 VALUE { IF ( V(U_LOGIC_PR1CMP) < 0.5,
+  1.1, 1.08)    }
X_U_LOGIC_U50         U_LOGIC_N16957214 U_LOGIC_PRIOB U_LOGIC_N16893869
+  AND2_BASIC_GEN PARAMS: VDD=1 VSS=0 VTHRESH=500E-3
X_U_LOGIC_U25         U_LOGIC_VCOMP U_LOGIC_VCOMPB INV_BASIC_GEN PARAMS: VDD=1
+  VSS=0 VTHRESH=500E-3
X_U_LOGIC_U42         U_LOGIC_N16944455 U_LOGIC_VCOMP U_LOGIC_N16865754
+  AND2_BASIC_GEN PARAMS: VDD=1 VSS=0 VTHRESH=500E-3
X_U_LOGIC_U23         U_LOGIC_CP2CMPB U_LOGIC_PR1CMP U_LOGIC_N16951095
+  AND2_BASIC_GEN PARAMS: VDD=1 VSS=0 VTHRESH=500E-3
E_U_LOGIC_ABM5         U_LOGIC_UVLO_TH2 0 VALUE { IF ( V(U_LOGIC_UV2) < 0.5,
+  2.5, 2.4)    }
X_U_LOGIC_U40         U_LOGIC_IN2OKB U_LOGIC_N16890589 STB OR2_BASIC_GEN
+  PARAMS: VDD=1 VSS=0 VTHRESH=500E-3
X_U_LOGIC_U27         U_LOGIC_UV1B U_LOGIC_UV1 INV_BASIC_GEN PARAMS: VDD=1
+  VSS=0 VTHRESH=500E-3
E_U_LOGIC_E4         U_LOGIC_N16808510 0 OV1 GND 1
X_U_LOGIC_U11         U_LOGIC_N16850468 U_LOGIC_OVP_TH2 U_LOGIC_OVP2
+  COMP_BASIC_GEN PARAMS: VDD=1 VSS=0 VTHRESH=0.5
X_U_LOGIC_U29         U_LOGIC_UV1 U_LOGIC_OVP1 U_LOGIC_IN1OKB OR2_BASIC_GEN
+  PARAMS: VDD=1 VSS=0 VTHRESH=500E-3
X_U_LOGIC_U19         U_LOGIC_PR1CMP U_LOGIC_PR1CMPB INV_BASIC_GEN PARAMS:
+  VDD=1 VSS=0 VTHRESH=500E-3
E_U_LOGIC_ABM3         U_LOGIC_OVP_TH1 0 VALUE { IF ( V(U_LOGIC_OVP1) < 0.5,
+  1.1, 1.08)    }
E_U_LOGIC_E6         U_LOGIC_N16850468 0 OV2 GND 1
X_U_LOGIC_U16         U_LOGIC_CP2IN U_LOGIC_CP2_TH U_LOGIC_CP2CMP
+  COMP_BASIC_GEN PARAMS: VDD=1 VSS=0 VTHRESH=0.5
X_U_LOGIC_U33         U_LOGIC_PRIO U_LOGIC_PRIOB INV_BASIC_GEN PARAMS: VDD=1
+  VSS=0 VTHRESH=500E-3
E_U_LOGIC_ABM6         U_LOGIC_OVP_TH2 0 VALUE { IF ( V(U_LOGIC_OVP2) < 0.5,
+  1.1, 1.08)    }
E_U_LOGIC_E8         U_LOGIC_CP2IN 0 CP2 GND 1
X_U_LOGIC_U5         U_LOGIC_OVP1 U_LOGIC_OVPB1 INV_BASIC_GEN PARAMS: VDD=1
+  VSS=0 VTHRESH=500E-3
X_U_LOGIC_U20         U_LOGIC_CP2CMP U_LOGIC_CP2CMPB INV_BASIC_GEN PARAMS:
+  VDD=1 VSS=0 VTHRESH=500E-3
X_U_LOGIC_U38         U_LOGIC_IN1OKB IN2OK U_LOGIC_N16893808 AND2_BASIC_GEN
+  PARAMS: VDD=1 VSS=0 VTHRESH=500E-3
X_U_LOGIC_U36         U_LOGIC_N16890589 U_LOGIC_N16891491 ENIN1 OR2_BASIC_GEN
+  PARAMS: VDD=1 VSS=0 VTHRESH=500E-3
X_U3         N104791 N104302 N104685 AND2_BASIC_GEN PARAMS: VDD=1 VSS=0
+  VTHRESH=500E-3
C_U_MOS_Cgd3         U_MOS_N17425530 U_MOS_GATE2  40p  TC=0,0 
X_U_MOS_S4    U_MOS_IF_LOW_BLOCK_FET_FROM_OUTTOIN1 0 U_MOS_N115987
+  U_MOS_N115752 MOS_U_MOS_S4 
G_U_MOS_ABM2I8         U_MOS_GATE2 U_MOS_N48699 VALUE {
+  IF(V(U_MOS_CTRL)>0.5,LIMIT((V(ISENSE)-V(ILIM_VALUE))*1m, 0,100u),0)    }
C_U_MOS_Cgs3         U_MOS_GATE2 U_MOS_N49965  100p  TC=0,0 
X_U_MOS_U27         U_MOS_N24334 ENGATE2 U_MOS_IF_LOW_BLOCK_FET_FROM_OUTTOIN2
+  AND2_BASIC_GEN PARAMS: VDD=1 VSS=0 VTHRESH=500E-3
E_U_MOS_E1         U_MOS_N47494 0 VALUE { IF(V(REVERSE1) < 0.5,V(U_MOS_N49965,
+  0),0) }
G_U_MOS_ABM2I10         U_MOS_GATE1 U_MOS_N47494 VALUE {
+  LIMIT((V(ISENSE)-V(U_MOS_ISC))*10m, 0,100u)    }
M_U_MOS_M3         U_MOS_N17425530 U_MOS_GATE2 U_MOS_N49965 U_MOS_N49965 NMOS02
+            
X_U_MOS_U21         U_MOS_N118698 U_MOS_N17425530 D_MODE
D_U_MOS_D2         U_MOS_N47494 U_MOS_GATE1 D_D1 
X_U_MOS_U33         U_MOS_N79562 U_MOS_CTRL INV_DELAY_BASIC_GEN PARAMS: VDD=1
+  VSS=0 VTHRESH=0.5 DELAY=300u
R_U_MOS_RIN1         U_MOS_N115987 DRAIN1  1m TC=0,0 
X_U_MOS_U25         REVERSE1 U_MOS_N23353 INV_BASIC_GEN PARAMS: VDD=1 VSS=0
+  VTHRESH=500E-3
X_U_MOS_S3    U_MOS_IF_LOW_BLOCK_FET_FROM_OUTTOIN2 0 U_MOS_N118702
+  U_MOS_N17425530 MOS_U_MOS_S3 
X_U_MOS_H3    U_MOS_N49965 VOUT_0 ISENSE 0 MOS_U_MOS_H3 
X_U_MOS_U26         REVERSE2 U_MOS_N24334 INV_BASIC_GEN PARAMS: VDD=1 VSS=0
+  VTHRESH=500E-3
E_U_MOS_E3         U_MOS_ISC 0 ILIM_VALUE 0 1.5
G_U_MOS_ABM2I3         U_MOS_GATE2 U_MOS_N49965 VALUE {
+  IF(V(U_MOS_N58724)-V(0)>0.5, 100u,0)    }
D_U_MOS_D4         U_MOS_N49965 U_MOS_N17158522 D_D1 
G_U_MOS_ABM2I11         U_MOS_GATE2 U_MOS_N48699 VALUE {
+  LIMIT((V(ISENSE)-V(U_MOS_ISC))*10m, 0,100u)    }
X_U_MOS_U29         ENGATE1 U_MOS_N57208 INV_BASIC_GEN PARAMS: VDD=1 VSS=0
+  VTHRESH=500E-3
D_U_MOS_D6         U_MOS_N49965 U_MOS_GATE2 D_D1 
E_U_MOS_ABM6         U_MOS_IFAST-TRIP_TIME 0 VALUE { IF(V(U_MOS_N17368605) >
+  0.5, 1, 0)    }
M_U_MOS_M2         U_MOS_N17158522 U_MOS_GATE1 U_MOS_N49965 U_MOS_N49965 NMOS01
+            
X_U_MOS_S5    U_MOS_IF_LOW_BLOCK_FET_FROM_OUTTOIN2 0 U_MOS_N118702
+  U_MOS_N118698 MOS_U_MOS_S5 
G_U_MOS_ABM2I7         U_MOS_N17425621 U_MOS_GATE2 VALUE {
+  IF(V(ENGATE2)-V(0)>0.5, 12u,0)    }
V_U_MOS_V8         U_MOS_N17425621 VOUT_0 5
E_U_MOS_ABM3         U_MOS_N17158883 0 VALUE { IF( V(ISENSE)>(V(ILIM_VALUE)*1.5
+  + 0.375), 1,0)    }
D_U_MOS_D5         U_MOS_N49965 U_MOS_GATE1 D_D1 
D_U_MOS_D12         U_MOS_N48699 U_MOS_GATE2 D_D1 
D_U_MOS_D13         U_MOS_N49965 U_MOS_N17425530 D_D1 
C_U_MOS_C2         U_MOS_N17368605 0  1n  TC=0,0 
V_U_MOS_V9         U_MOS_N84461 0 5mVdc
X_U_MOS_U30         ENGATE2 U_MOS_N58724 INV_BASIC_GEN PARAMS: VDD=1 VSS=0
+  VTHRESH=500E-3
G_U_MOS_ABM2I2         U_MOS_GATE1 U_MOS_N49965 VALUE {
+  IF(V(U_MOS_N57208)-V(0)>0.5, 100u,0)    }
X_U_MOS_U17         U_MOS_N115752 U_MOS_N17158522 D_MODE
X_U_MOS_U4         U_MOS_N17158883 U_MOS_N17158861 ONE_SHOT PARAMS:  T=1000  
X_U_MOS_S2    U_MOS_IF_LOW_BLOCK_FET_FROM_OUTTOIN1 0 U_MOS_N115987
+  U_MOS_N17158522 MOS_U_MOS_S2 
X_U_MOS_U32         ILIM_VALUE ISENSE U_MOS_N84461 U_MOS_N79562
+  COMPHYS_BASIC_GEN PARAMS: VDD=1 VSS=0 VTHRESH=0.5
D_U_MOS_D7         U_MOS_N17368605 U_MOS_N17158861 D_D1 
V_U_MOS_V7         U_MOS_N17158357 VOUT_0 5
G_U_MOS_ABM2I4         U_MOS_GATE1 U_MOS_N47494 VALUE {
+  IF(V(U_MOS_CTRL)>0.5,LIMIT((V(ISENSE)-V(ILIM_VALUE))*10m, 0,100u),0)    }
R_U_MOS_RIN2         U_MOS_N118702 DRAIN2  1m TC=0,0 
C_U_MOS_Cgs2         U_MOS_GATE1 U_MOS_N49965  100p  TC=0,0 
C_U_MOS_Cgd2         U_MOS_N17158522 U_MOS_GATE1  40p  TC=0,0 
X_U_MOS_U24         U_MOS_N23353 ENGATE1 U_MOS_IF_LOW_BLOCK_FET_FROM_OUTTOIN1
+  AND2_BASIC_GEN PARAMS: VDD=1 VSS=0 VTHRESH=500E-3
G_U_MOS_ABM2I1         U_MOS_N17158357 U_MOS_GATE1 VALUE {
+  IF(V(ENGATE1)-V(0)>0.5, 12u,0)    }
D_U_MOS_D3         U_MOS_GATE1 U_MOS_N17158357 D_D1 
E_U_MOS_E2         U_MOS_N48699 0 VALUE { IF(V(REVERSE2) < 0.5,V(U_MOS_N49965,
+  0),0) }
D_U_MOS_D10         U_MOS_GATE2 U_MOS_N17425621 D_D1 
R_U_MOS_R3         U_MOS_N17158861 U_MOS_N17368605  288 TC=0,0 
X_S2    N104685 0 ST GND TPS2121_S2 
V_U_ILIM_V1         U_ILIM_N16778654 GND 50
E_U_ILIM_ABM2         U_ILIM_ISENSE 0 VALUE {
+  IF(V(U_ILIM_ISENSE)>0.01,V(U_ILIM_ISENSE),0.01)    }
E_U_ILIM_ABM1         ILIM_VALUE 0 VALUE { 
+ {IF(V(U_ILIM_N16778688)>50e-6,129600*(100u*V(U_ILIM_ISENSE)+1u)/V(U_ILIM_N16778688),0)}
+     }
D_U_ILIM_D1         ILIM U_ILIM_N16778654 D_D1 
I_U_ILIM_I1         U_ILIM_N16778654 ILIM DC 1u  
G_U_ILIM_G1         U_ILIM_N16778654 ILIM U_ILIM_ISENSE 0 100u
E_U_ILIM_E3         U_ILIM_N16778688 0 ILIM GND 1
R_U_ILIM_Rilim_int         GND ILIM  1e12 TC=0,0 
X_U_dvdt_U83         U_dvdt_ENIN2_OS TSET U_dvdt_N17369020 AND2_BASIC_GEN
+  PARAMS: VDD=1 VSS=0 VTHRESH=500E-3
X_U_dvdt_U19         U_dvdt_CHG_F2_OK U_dvdt_CHG_F2_OKB U_dvdt_V_INMUX
+  U_dvdt_CHG_F1_OK U_dvdt_RS 0 DFFSR_RHPBASIC_GEN PARAMS: VDD=1 VSS=0
+  VTHRESH=500E-3
X_U_dvdt_U75         U_dvdt_DISCHG U_dvdt_DISCHGB INV_BASIC_GEN PARAMS: VDD=1
+  VSS=0 VTHRESH=500E-3
X_U_dvdt_U108         U_dvdt_N17546791 U_dvdt_ENIN TON_TSET AND2_BASIC_GEN
+  PARAMS: VDD=1 VSS=0 VTHRESH=500E-3
X_U_dvdt_U62         U_dvdt_N17409001 U_dvdt_N17368979 U_dvdt_N17429654
+  OR2_BASIC_GEN PARAMS: VDD=1 VSS=0 VTHRESH=500E-3
X_U_dvdt_U110         U_dvdt_N17558187 U_dvdt_BBB BUF_BASIC_GEN PARAMS: VDD=1
+  VSS=0 VTHRESH=0.5
X_U_dvdt_U84         U_dvdt_N17253024 U_dvdt_DISCHGB U_dvdt_CHG AND2_BASIC_GEN
+  PARAMS: VDD=1 VSS=0 VTHRESH=500E-3
E_U_dvdt_E1         DVDT 0 SS 0 1
X_U_dvdt_U86         U_dvdt_CHG_F1_OK SET BUF_BASIC_GEN PARAMS: VDD=1 VSS=0
+  VTHRESH=0.5
X_U_dvdt_U107         U_dvdt_CHG_F1_OK U_dvdt_CHG_F2_OKB U_dvdt_N17546791
+  AND2_BASIC_GEN PARAMS: VDD=1 VSS=0 VTHRESH=500E-3
X_U_dvdt_U21         U_dvdt_RS_CH1 U_dvdt_N17178620 U_dvdt_N17577902
+  U_dvdt_N17178620 U_dvdt_RS 0 DFFSR_RHPBASIC_GEN PARAMS: VDD=1 VSS=0
+  VTHRESH=500E-3
X_U_dvdt_U60         U_dvdt_RS_CH2 U_dvdt_RS_CH1 U_dvdt_RS OR2_BASIC_GEN
+  PARAMS: VDD=1 VSS=0 VTHRESH=500E-3
X_U_dvdt_U100         ENIN1 TSET U_dvdt_N17402928 AND2_BASIC_GEN PARAMS: VDD=1
+  VSS=0 VTHRESH=500E-3
X_U_dvdt_U91         U_dvdt_IN2OKB U_dvdt_IN2OK_DEL INV_DELAY_BASIC_GEN PARAMS:
+  VDD=1 VSS=0 VTHRESH=0.5 DELAY=1u
X_U_dvdt_U23         U_dvdt_N17368979 N17369030 U_dvdt_N17369020 U_dvdt_BBB
+  CHG_DONE 0 DFFSR_RHPBASIC_GEN PARAMS: VDD=1 VSS=0 VTHRESH=500E-3
X_U_dvdt_U70         U_dvdt_RS U_dvdt_RS_DEL INV_DELAY_BASIC_GEN PARAMS: VDD=1
+  VSS=0 VTHRESH=0.5 DELAY=2u
X_U_dvdt_U104         U_dvdt_N17497442 U_dvdt_N17282004 U_dvdt_N174971430
+  N17497972 SRLATCHRHP_BASIC_GEN PARAMS: VDD=1 VSS=0 VTHRESH=0.5
X_U_dvdt_U101         ENIN2 TSET U_dvdt_N17409022 AND2_BASIC_GEN PARAMS: VDD=1
+  VSS=0 VTHRESH=500E-3
X_U_dvdt_U111         U_dvdt_ENIN1_DEL U_dvdt_ENIN1_OS ONE_SHOT PARAMS: 
+  T=10000  
E_U_dvdt_ABM3         U_dvdt_N17155619 0 VALUE { IF(V(ENIN1) >
+  0.5,V(IN1),IF(V(ENIN2) > 0.5,V(IN2),0))    }
G_U_dvdt_ABM2I1         U_dvdt_N17156242 SS VALUE { IF(V(U_dvdt_CHG) >
+  0.5,10u*V(U_dvdt_INMUX),0)    }
E_U_dvdt_E2         U_dvdt_INMUX 0 U_dvdt_N17155619 0 1
X_U_dvdt_U78         U_dvdt_CHG_F1_OKB U_dvdt_ENIN TSET AND2_BASIC_GEN PARAMS:
+  VDD=1 VSS=0 VTHRESH=500E-3
X_U_dvdt_U77         TSET CHG_F2 U_dvdt_N17253024 OR2_BASIC_GEN PARAMS: VDD=1
+  VSS=0 VTHRESH=500E-3
V_U_dvdt_V7         U_dvdt_N17169801 0 1Vdc
C_U_dvdt_C3         GND SS  0.1n  TC=0,0 
X_U_dvdt_U80         U_dvdt_CHG_F2_OKB U_dvdt_ENIN TON AND2_BASIC_GEN PARAMS:
+  VDD=1 VSS=0 VTHRESH=500E-3
X_U_dvdt_U89         IN2OK U_dvdt_IN2OKB INV_BASIC_GEN PARAMS: VDD=1 VSS=0
+  VTHRESH=500E-3
X_U_dvdt_U24         U_dvdt_N17555865 U_dvdt_N17282004 U_dvdt_IN1OK_DEL IN2OK
+  U_dvdt_IN1OKB 0 DFFSR_RHPBASIC_GEN PARAMS: VDD=1 VSS=0 VTHRESH=500E-3
X_U_dvdt_U109         U_dvdt_N17555865 U_dvdt_AAA BUF_BASIC_GEN PARAMS: VDD=1
+  VSS=0 VTHRESH=0.5
X_U_dvdt_U27         U_dvdt_N17409001 N17409029 U_dvdt_ENIN2_DEL
+  U_dvdt_N17409022 CHG_DONE 0 DFFSR_RHPBASIC_GEN PARAMS: VDD=1 VSS=0
+  VTHRESH=500E-3
X_U_dvdt_U88         IN1OK U_dvdt_IN1OKB INV_BASIC_GEN PARAMS: VDD=1 VSS=0
+  VTHRESH=500E-3
X_U_dvdt_U87         TON_TSET U_dvdt_TON_SETB INV_BASIC_GEN PARAMS: VDD=1 VSS=0
+  VTHRESH=500E-3
X_U_dvdt_U81         U_dvdt_YYY TON_TSET CHG_F2 AND2_BASIC_GEN PARAMS: VDD=1
+  VSS=0 VTHRESH=500E-3
V_U_dvdt_V8         U_dvdt_N17511684 0 1Vdc
X_U_dvdt_U65         U_dvdt_N17159052 U_dvdt_N17160383 INV_DELAY_BASIC_GEN
+  PARAMS: VDD=1 VSS=0 VTHRESH=0.5 DELAY=2u
X_U_dvdt_U112         U_dvdt_ENIN2_DEL U_dvdt_ENIN2_OS ONE_SHOT PARAMS: 
+  T=10000  
E_U_dvdt_ABM10         U_dvdt_ENIN1_DEL 0 VALUE { 
+ {IF(V(U_dvdt_N17567319)>0.5,1,0)}    }
X_U_dvdt_U20         U_dvdt_RS_CH2 U_dvdt_N17178547 U_dvdt_N17178630
+  U_dvdt_N17178547 U_dvdt_RS 0 DFFSR_RHPBASIC_GEN PARAMS: VDD=1 VSS=0
+  VTHRESH=500E-3
E_U_dvdt_ABM8         V97_IN 0 VALUE { IF(V(U_dvdt_ENIN)<0.5,0,IF(V(DVDT)
+  >0.99*V(U_dvdt_INMUX),1,0))    }
R_U_dvdt_R1         ENIN1 U_dvdt_N17567319  10 TC=0,0 
R_U_dvdt_R3         U_dvdt_N17600387 U_dvdt_CHG_F1_OK  100 TC=0,0 
X_U_dvdt_U72         U_dvdt_N17160383 U_dvdt_N17159052 U_dvdt_DISCHG
+  AND2_BASIC_GEN PARAMS: VDD=1 VSS=0 VTHRESH=500E-3
D_U_dvdt_D3         U_dvdt_INMUX U_dvdt_N17156242 D_D2 
E_U_dvdt_ABM9         U_dvdt_N17538881 0 VALUE {
+  IF(V(U_dvdt_ENIN)<0.5,1,IF(V(GND) >V(SS),1,0))    }
X_U_dvdt_U85         U_dvdt_CHG_F2_OK CHG_DONE BUF_BASIC_GEN PARAMS: VDD=1
+  VSS=0 VTHRESH=0.5
X_U_dvdt_U61         U_dvdt_N17352129 U_dvdt_N17402925 U_dvdt_N17429065
+  OR2_BASIC_GEN PARAMS: VDD=1 VSS=0 VTHRESH=500E-3
X_U_dvdt_U66         U_dvdt_AAA U_dvdt_CHG_F2_OK U_dvdt_N17497442
+  AND2_BASIC_GEN PARAMS: VDD=1 VSS=0 VTHRESH=500E-3
X_U_dvdt_U92         U_dvdt_ENIN1_OS TSET U_dvdt_N17355124 AND2_BASIC_GEN
+  PARAMS: VDD=1 VSS=0 VTHRESH=500E-3
X_U_dvdt_U76         ENIN1 ENIN2 U_dvdt_ENIN OR2_BASIC_GEN PARAMS: VDD=1 VSS=0
+  VTHRESH=500E-3
G_U_dvdt_ABM2I2         SS GND VALUE { IF(V(U_dvdt_DISCHG) > 0.5,10,0)    }
X_U_dvdt_U22         U_dvdt_N17352129 N17356612 U_dvdt_N17355124 U_dvdt_AAA
+  CHG_DONE 0 DFFSR_RHPBASIC_GEN PARAMS: VDD=1 VSS=0 VTHRESH=500E-3
E_U_dvdt_ABM11         U_dvdt_ENIN2_DEL 0 VALUE { 
+ {IF(V(U_dvdt_N175854680)>0.5,1,0)}    }
E_U_dvdt_ABM7         U_dvdt_V_INMUX 0 VALUE { IF(V(U_dvdt_ENIN)<0.5,0,IF(V(SS)
+  >V(U_dvdt_INMUX),1,0))    }
D_U_dvdt_D5         GND SS D_D2 
E_U_dvdt_ABM12         U_dvdt_N17178630 0 VALUE { 
+ {IF(V(U_dvdt_N174971430)>0.5,1,0)}    }
X_U_dvdt_U103         U_dvdt_N17493161 U_dvdt_N17286535 U_dvdt_N174907630
+  N17493828 SRLATCHRHP_BASIC_GEN PARAMS: VDD=1 VSS=0 VTHRESH=0.5
E_U_dvdt_ABM13         U_dvdt_N17577902 0 VALUE { 
+ {IF(V(U_dvdt_N174907630)>0.5,1,0)}    }
X_U_dvdt_U25         U_dvdt_N17558187 U_dvdt_N17286535 U_dvdt_IN2OK_DEL IN1OK
+  U_dvdt_IN2OKB 0 DFFSR_RHPBASIC_GEN PARAMS: VDD=1 VSS=0 VTHRESH=500E-3
C_U_dvdt_C5         0 U_dvdt_N175854680  {2u/(0.693*10)}  TC=0,0 
X_U_dvdt_U74         U_dvdt_V_INMUX U_dvdt_N17538881 U_dvdt_N17159052 N17163392
+  SRLATCHSHP_BASIC_GEN PARAMS: VDD=1 VSS=0 VTHRESH=0.5
X_U_dvdt_U90         U_dvdt_IN1OKB U_dvdt_IN1OK_DEL INV_DELAY_BASIC_GEN PARAMS:
+  VDD=1 VSS=0 VTHRESH=0.5 DELAY=1u
X_U_dvdt_U28         SEL_CTRL N17513792 U_dvdt_YYY U_dvdt_N17511684
+  U_dvdt_N17510452 0 DFFSR_RHPBASIC_GEN PARAMS: VDD=1 VSS=0 VTHRESH=500E-3
C_U_dvdt_C4         0 U_dvdt_N17567319  {2u/(0.693*10)}  TC=0,0 
R_U_dvdt_R2         ENIN2 U_dvdt_N175854680  10 TC=0,0 
X_U_dvdt_U106         IN1OK IN2OK U_dvdt_N17510452 NOR2_BASIC_GEN PARAMS: VDD=1
+  VSS=0 VTHRESH=500E-3
C_U_dvdt_C6         0 U_dvdt_CHG_F1_OK  {1u/(0.693*100)}  TC=0,0 
X_U_dvdt_U26         U_dvdt_N17402925 N17402938 U_dvdt_ENIN1_DEL
+  U_dvdt_N17402928 CHG_DONE 0 DFFSR_RHPBASIC_GEN PARAMS: VDD=1 VSS=0
+  VTHRESH=500E-3
X_U_dvdt_U18         U_dvdt_N17600387 U_dvdt_CHG_F1_OKB U_dvdt_V_INMUX
+  U_dvdt_N17169801 U_dvdt_RS 0 DFFSR_RHPBASIC_GEN PARAMS: VDD=1 VSS=0
+  VTHRESH=500E-3
D_U_dvdt_D4         SS U_dvdt_N17156242 D_D2 
X_U_dvdt_U63         U_dvdt_N17429065 U_dvdt_N17429654 U_dvdt_YYY OR2_BASIC_GEN
+  PARAMS: VDD=1 VSS=0 VTHRESH=500E-3
X_U_dvdt_U73         U_dvdt_BBB U_dvdt_CHG_F2_OK U_dvdt_N17493161
+  AND2_BASIC_GEN PARAMS: VDD=1 VSS=0 VTHRESH=500E-3
.ENDS   TPS2121_TRANS
*$
.subckt MOS_U_MOS_S4 1 2 3 4  
S_U_MOS_S4         3 4 1 2 _U_MOS_S4
RS_U_MOS_S4         1 2 1G
.MODEL         _U_MOS_S4 VSWITCH Roff=1000E6 Ron=1m Voff=0.2 Von=0.8
.ends MOS_U_MOS_S4
*$
.subckt MOS_U_MOS_S3 1 2 3 4  
S_U_MOS_S3         3 4 1 2 _U_MOS_S3
RS_U_MOS_S3         1 2 1G
.MODEL         _U_MOS_S3 VSWITCH Roff=1000E6 Ron=50m Voff=0.2 Von=0.8
.ends MOS_U_MOS_S3
*$
.subckt MOS_U_MOS_H3 1 2 3 4  
H_U_MOS_H3         3 4 VH_U_MOS_H3 1
VH_U_MOS_H3         1 2 0V
.ends MOS_U_MOS_H3
*$
.subckt MOS_U_MOS_S5 1 2 3 4  
S_U_MOS_S5         3 4 1 2 _U_MOS_S5
RS_U_MOS_S5         1 2 1G
.MODEL         _U_MOS_S5 VSWITCH Roff=1000E6 Ron=1m Voff=0.2 Von=0.8
.ends MOS_U_MOS_S5
*$
.subckt MOS_U_MOS_S2 1 2 3 4  
S_U_MOS_S2         3 4 1 2 _U_MOS_S2
RS_U_MOS_S2         1 2 1G
.MODEL         _U_MOS_S2 VSWITCH Roff=1000E6 Ron=50m Voff=0.2 Von=0.8
.ends MOS_U_MOS_S2
*$
.subckt TPS2121_S2 1 2 3 4  
S_S2         3 4 1 2 _S2
RS_S2         1 2 1G
.MODEL         _S2 VSWITCH Roff=1e6 Ron=50m Voff=0.2 Von=0.8
.ends TPS2121_S2
*$
*$
.subckt dffsr_rhpbasic_gen q qb clk d r s params: vdd=1 vss=0 vthresh=0.5 
x1 clk clkdel inv_delay_basic_gen params: vdd={vdd} vss={vss} vthresh=
+ {vthresh} delay = 150n
x2 clk clkdel clkint and2_basic_gen params: vdd={vdd} vss={vss} vthresh=
+ {vthresh}  
gq 0 qint value = {if(v(r) > {vthresh},-5,if(v(s) > {vthresh},5, if(v(clkint)>
+  {vthresh}, 
+ if(v(d)> {vthresh},5,-5),0)))}
cqint qint 0 10n
rqint qint 0 1000meg
d_d10 qint my5 d_d1
v1 my5 0 {vdd}
d_d11 myvss qint d_d1
v2 myvss 0 {vss} 
eq qqq 0 qint 0 1
x3 qqq qqqd1 buf_delay_basic_gen params: vdd={vdd} vss={vss} vthresh={vthresh}
+  delay = 20n
rqq qqqd1 q 1
eqb qbr 0 value = {if( v(q) > {vthresh}, {vss},{vdd})}
rqb qbr qb 1 
cdummy1 q 0 1nf 
cdummy2 qb 0 1nf 
.ic v(qint) {vss}
.model d_d1 d
+ is=1e-015
+ tt=1e-011
+ rs=0.05
+ n=0.1
.ends dffsr_rhpbasic_gen
*$
.model NMOS02 nmos
+ vto=1
+ kp=100
+ lambda=0.0001
*$
.subckt d_mode 1 2
d1 1 2 dd1
.model dd1 d
+ is=1e-005
+ rs=0.001
+ n=0.15
.ends d_mode
*$
.model D_D1 d
+ is=1e-015
+ rs=0.05
+ n=0.1
+ tt=1e-011
*$
.model NMOS01 nmos
+ vto=1.7
+ kp=100
+ lambda=0.0001
*$
.subckt one_shot in out
+ params:  t=100
s_s1         meas 0 reset2 0 s1
e_abm1         ch 0 value { if( v(in)>0.5 | v(out)>0.5,1,0)    }
r_r2         reset2 reset  0.1  
e_abm3         out 0 value { if( v(meas)<0.5 & v(ch)>0.5,1,0)    }
r_r1         meas ch  {t} 
c_c2         0 reset2  1.4427n  
c_c1         0 meas  1.4427n  
e_abm2         reset 0 value { if(v(ch)<0.5,1,0)    }
.model s1 vswitch
+ roff=1e+009
+ ron=1
+ voff=0.25
+ von=0.75
.ends one_shot
*$
.subckt srlatchrhp_basic_gen s r q qb params: vdd=1 vss=0 vthresh=0.5 
gq 0 qint value = {if(v(r) > {vthresh},-5,if(v(s)>{vthresh},5, 0))}
cqint qint 0 10n
rqint qint 0 1000meg
d_d10 qint my5 d_d1
v1 my5 0 {vdd}
d_d11 myvss qint d_d1
v2 myvss 0 {vss} 
eq qqq 0 qint 0 1
x3 qqq qqqd1 buf_basic_gen params: vdd={vdd} vss={vss} vthresh={vthresh}
rqq qqqd1 q 1
eqb qbr 0 value = {if( v(q) > {vthresh}, {vss},{vdd})}
rqb qbr qb 1 
cdummy1 q 0 1n 
cdummy2 qb 0 1n
.ic v(qint) {vss}
.model d_d1 d
+ is=1e-015
+ n=0.1
+ tt=1e-011
.ends srlatchrhp_basic_gen
*$
.model D_D2 d
+ is=1e-015
+ rs=0.0001
+ n=0.0001
+ tt=1e-011
*$
.SUBCKT AND2_BASIC_GEN A B Y PARAMS: VDD=1 VSS=0 VTHRESH=0.5 
E_ABMGATE    YINT 0 VALUE {{IF(V(A) > {VTHRESH}  &  
+ V(B) > {VTHRESH},{VDD},{VSS})}}
RINT YINT Y 1
CINT Y 0 10n
.ENDS AND2_BASIC_GEN
*$
.SUBCKT AND3_BASIC_GEN A B C Y PARAMS: VDD=1 VSS=0 VTHRESH=0.5 
E_ABMGATE    YINT 0 VALUE {{IF(V(A) > {VTHRESH}  &  
+ V(B) > {VTHRESH} &
+ V(C) > {VTHRESH},{VDD},{VSS})}}
RINT YINT Y 1
CINT Y 0 10n
.ENDS AND3_BASIC_GEN
*$
.SUBCKT INV_BASIC_GEN A  Y PARAMS: VDD=1 VSS=0 VTHRESH=0.5 
E_ABMGATE    YINT 0 VALUE {{IF(V(A) > {VTHRESH} , 
+ {VSS},{VDD})}}
RINT YINT Y 1
CINT Y 0 10n
.ENDS INV_BASIC_GEN
*$
.SUBCKT OR2_BASIC_GEN A B Y PARAMS: VDD=1 VSS=0 VTHRESH=0.5 
E_ABMGATE    YINT 0 VALUE {{IF(V(A) > {VTHRESH}  |  
+ V(B) > {VTHRESH},{VDD},{VSS})}}
RINT YINT Y 1
CINT Y 0 10n
.ENDS OR2_BASIC_GEN
*$
.SUBCKT INV_DELAY_BASIC_GEN A  Y PARAMS: VDD=1 VSS=0 VTHRESH=0.5 DELAY = 10n 
E_ABMGATE1    YINT1 0 VALUE {{IF(V(A) > {VTHRESH} , 
+ {VDD},{VSS})}}
RINT YINT1 YINT2 1
CINT YINT2 0 {DELAY*1.3}
E_ABMGATE2    YINT3 0 VALUE {{IF(V(YINT2) > {VTHRESH} , 
+ {VSS},{VDD})}}
RINT2 YINT3 Y 1
CINT2 Y 0 10n