* PSpice Model Editor - Version 16.2.0
*$
* TPS22913C
*****************************************************************************
* (C) Copyright 2013 Texas Instruments Incorporated. All rights reserved.
*****************************************************************************
** This model is designed as an aid for customers of Texas Instruments.
** TI and its licensors and suppliers make no warranties, either expressed
** or implied, with respect to this model, including the warranties of
** merchantability or fitness for a particular purpose. The model is
** provided solely on an "as is" basis. The entire risk as to its quality
** and performance is with the customer
*****************************************************************************
*
** Released by: WEBENCH Design Center, Texas Instruments Inc.
* Part: TPS22913C
* Date: 22AUG2013 
* Model Type: Transient
* Simulator: PSpice
* Simulator Version: 16.2.0.p001
* EVM Order Number: TPS2291xxEVM-656
* EVM Users Guide: SLVU501A–August 2011–Revised January 2012
* Datasheet: SLVSB20 –SEPTEMBER 2011
*
* Model Version: Final 1.00
*
*****************************************************************************
*
* Updates:
*
* Final 1.00
* Release to Web
*
*****************************************************************************
*
* Model Usage Notes:
*
* 1. The following features have been modeled
*      a. Switching Characteristics and variation with VIN
*      b. RON and variation with VIN
*      c. Quiescent Current v/s VIN at room temperature
*      d. IIN(OFF) v/s VIN at room temperature
*      e. Under voltage lockout 
*      f. Reverse current protection
*      g. Pull down resistance v/s Time
* 2. Temperature effects are note been modeled. 
*
*****************************************************************************
.SUBCKT TPS22913C ON VIN VOUT GND
C_U13_C1         0 U13_N427858  1n  
G_U13_G4         U13_N427858 0 TABLE { V(U13_N14557703, 0) } 
+ ( (0,0)(1.5,33u)(3.3,103u)(5,103U) )
X_U13_S1    U13_N427964 0 U13_N427858 0 CONTROL_U13_S1 
C_U13_C4         0 U13_N14557703  1n  
E_U13_ABM5         U13_N14557767 0 VALUE { IF(V(U13_ON_INT1) < 0.5, V(VIN),0)  
+   }
E_U13_E1         U13_VON_TH 0 TABLE { V(VIN, 0) } 
+ ( (1.5,0.72)(1.8,0.75)(2.5,0.8)(3.3,0.88)(4.2,0.88)(5,0.94) )
E_U13_ABM6         U13_N145581551 0 VALUE { IF(V(U13_ON_INT1) > 0.5, V(VIN),0) 
+    }
R_U13_R2         U13_N145581551 U13_N14636224  10 TC=0,0 
V_U13_V5         U13_N14507001 0 2
X_U13_U43         U13_N427858 ON_INT BUF_BASIC_GEN PARAMS: VDD=1 VSS=0
+  VTHRESH=0.5
X_U13_U44         U13_ON_INT1 ON_INT U13_N427944 AND2_BASIC_GEN PARAMS: VDD=1
+  VSS=0 VTHRESH=500E-3
G_U13_G3         U13_N14507001 U13_N427858 TABLE { V(U13_N14636224, 0) } 
+ ( (0,0)(1.5,8.5u)(3.3,9u)(5,9.5u) )
C_U13_C3         0 U13_N14636224  1n  
X_U13_U46         ON_INT U13_ON_INT1 U13_N427964 NOR2_BASIC_GEN PARAMS: VDD=1
+  VSS=0 VTHRESH=500E-3
X_U13_S2    U13_N427944 0 U13_N427908 U13_N427858 CONTROL_U13_S2 
X_U13_U1         ON U13_VON_TH U13_N14649441 U13_ON_INT1 COMPHYS_BASIC_GEN
+  PARAMS: VDD=1 VSS=0 VTHRESH=0.5
D_U13_D3         U13_N427858 U13_N14507001 DD 
V_U13_V4         U13_N427908 0 1
R_U13_R3         U13_N14557767 U13_N14557703  10 TC=0,0 
V_U13_V2         U13_N14649441 0 0.4
G_U3_G2         VIN GND TABLE { V(U3_N14548749, 0) } 
+ (
+  (0,0)(1.5,44n)(1.8,68n)(2.5,88.35n)(3.6,147n)(4.2,213n)(5,829n)(5.25,1010n)(5.5,1199n)
+  )
E_U3_ABM1         U3_N14549380 0 VALUE { IF (V(ON_INT) >= 0.5 , V(VIN) ,  0)   
+  }
G_U3_G1         VIN GND TABLE { V(U3_N14543258, 0) } 
+ (
+  (0,0)(1.5,0.73u)(1.8,0.81u)(2.5,0.934u)(3.6,1.99u)(4.2,2.07u)(5,2.14u)(5.25,2.2u)(5.5,2.23u)
+  )
E_U3_ABM2         U3_N14550194 0 VALUE { IF (V(ON_INT) < 0.5 , V(VIN) ,  0)   
+  }
R_U3_R2         U3_N14550194 U3_N14548749  10 TC=0,0 
C_U3_C1         0 U3_N14543258  1n  
C_U3_C2         0 U3_N14548749  1n  
R_U3_R1         U3_N14549380 U3_N14543258  10 TC=0,0 
G_U2_ABM2I2         0 U2_VGATE VALUE { IF((V(VOUT)-V(VIN))>44m, 265U, 0)    }
X_U2_S3    U2_UVLO 0 VOUT 0 DRIVER_U2_S3 
M_U2_M2         VOUT U2_VGATE U2_N14519056 U2_N14519056 PMOS01           
X_U2_S4    U2_VRCP 0 VIN U2_N14900365 DRIVER_U2_S4 
X_U2_U7         VIN U2_N14519056 U2_ON_RES1 0 RVAR PARAMS:  RREF=1
E_U2_ABM14         U2_N156631330 0 VALUE { IF(V(U2_VRCP1)==44m,1,0.2)    }
C_U2_C7         0 U2_N14656616  0.1695U  TC=0,0 
X_U2_S2    VIN 0 VOUT U2_N14656616 DRIVER_U2_S2 
R_U2_R1         U2_N14554417 U2_N14553129  10 TC=0,0 
X_U2_S1    ON_INT 0 VOUT GND DRIVER_U2_S1 
X_U2_U6         VIN U2_N14713218 U2_N14713224 U2_UVLO COMPHYS_BASIC_GEN PARAMS:
+  VDD=1 VSS=0 VTHRESH=0.5
E_U2_ABM3         U2_N14554417 0 VALUE { IF(V(ON_INT) >= 0.5, V(VIN),0)    }
C_U2_C6         GND VOUT  0.04546U  TC=0,0 
E_U2_ABM1         U2_N14524493 0 VALUE { V(VIN)    }
R_U2_R2         U2_N156631330 U2_VRCP  10 TC=0,0 
V_U2_V13         U2_N14713218 0 1.2
C_U2_C1         0 U2_N14553129  1n  
C_U2_C2         0 U2_VRCP  1n  
E_U2_ABM6         U2_N15637453 0 VALUE { V(VIN)    }
G_U2_ABM2I1         U2_N14524493 U2_VGATE VALUE { IF ( V(ON_INT) < 0.5 ,  
+ (840 * V(VIN) - 575) * 1u , 0)   }
D_U2_D7         VOUT U2_N14900365 DD 
E_U2_ABM12         U2_VRCP1 0 VALUE { IF((V(VOUT)  
+ >V(VIN)),44m,  0)   }
D_U2_D6         U2_VGATE U2_N14524493 DD 
C_U2_C4         VOUT U2_VGATE  0.367079n  
E_U2_E2         U2_ON_RES1 0 TABLE { V(U2_N15637453, 0) } 
+ (
+  (0,0)(1.5,0)(1.8,8.2m)(2.5,19.3m)(3.3,28.95m)(3.6,28.95m)(4.2,35.77m)(5,39.48m)(5.5,42.34m)
+  )
V_U2_V14         U2_N14713224 0 0.7
G_U2_G2         U2_VGATE 0 TABLE { V(U2_N14553129, 0) } 
+ ( (0,0)(1.5,0.28u)(3.3,1.1u)(5,1.9u) )
D_U2_D5         0 U2_VGATE DD 
C_U2_C5         U2_VGATE U2_N14519056  0.350521n  
.ends TPS22913C
*$

.subckt CONTROL_U13_S1 1 2 3 4  
S_U13_S1         3 4 1 2 _U13_S1
RS_U13_S1         1 2 1G
.MODEL         _U13_S1 VSWITCH Roff=100e6 Ron=1m Voff=0.2 Von=0.8
.ends CONTROL_U13_S1
*$
.subckt CONTROL_U13_S2 1 2 3 4  
S_U13_S2         3 4 1 2 _U13_S2
RS_U13_S2         1 2 1G
.MODEL         _U13_S2 VSWITCH Roff=100e6 Ron=1m Voff=0.2 Von=0.8
.ends CONTROL_U13_S2
*$
.subckt DRIVER_U2_S3 1 2 3 4  
S_U2_S3         3 4 1 2 _U2_S3
RS_U2_S3         1 2 1G
.MODEL         _U2_S3 VSWITCH Roff=10e6 Ron=1m Voff=0.6 Von=0.001
.ends DRIVER_U2_S3
*$
.subckt DRIVER_U2_S4 1 2 3 4  
S_U2_S4         3 4 1 2 _U2_S4
RS_U2_S4         1 2 1G
.MODEL         _U2_S4 VSWITCH Roff=1e9 Ron=3.62 Voff=0.9 Von=0.1
.ends DRIVER_U2_S4
*$
.subckt DRIVER_U2_S2 1 2 3 4  
S_U2_S2         3 4 1 2 _U2_S2
RS_U2_S2         1 2 1G
.MODEL         _U2_S2 VSWITCH Roff=10e6 Ron=1m Voff=3 Von=1.4
.ends DRIVER_U2_S2
*$
.subckt DRIVER_U2_S1 1 2 3 4  
S_U2_S1         3 4 1 2 _U2_S1
RS_U2_S1         1 2 1G
.MODEL         _U2_S1 VSWITCH Roff=10e6 Ron=153 Voff=0.8 Von=0.2
.ends DRIVER_U2_S1
*$

.SUBCKT COMPHYS_BASIC_GEN INP INM HYS OUT PARAMS: VDD=1 VSS=0 VTHRESH=0.5	
EIN INP1 INM1 INP INM 1 
EHYS INP1 INP2 VALUE { IF( V(1) > {VTHRESH},-V(HYS),0) }
EOUT OUT 0 VALUE { IF( V(INP2)>V(INM1), {VDD} ,{VSS}) }
R1 OUT 1 1
C1 1 0 5n
RINP1 INP1 0 1K
.ENDS COMPHYS_BASIC_GEN
*$

.model DD d
+ is=1e-015
+ n=0.01
+ tt=1e-011

*$
.model PMOS01 pmos
+ vto=-0.4
+ kp=10.86
+ lambda=0.001
*$

.SUBCKT AND2_BASIC_GEN A B Y PARAMS: VDD=1 VSS=0 VTHRESH=0.5 
E_ABMGATE    YINT 0 VALUE {{IF(V(A) > {VTHRESH}  &  
+ V(B) > {VTHRESH},{VDD},{VSS})}}
RINT YINT Y 1
CINT Y 0 1n
.ENDS AND2_BASIC_GEN
*$
.SUBCKT INV_BASIC_GEN A  Y PARAMS: VDD=1 VSS=0 VTHRESH=0.5 
E_ABMGATE    YINT 0 VALUE {{IF(V(A) > {VTHRESH} , 
+ {VSS},{VDD})}}
RINT YINT Y 1
CINT Y 0 1n
.ENDS INV_BASIC_GEN
*$
.SUBCKT BUF_BASIC_GEN A  Y PARAMS: VDD=1 VSS=0 VTHRESH=0.5 
E_ABMGATE    YINT 0 VALUE {{IF(V(A) > {VTHRESH} , 
+ {VDD},{VSS})}}
RINT YINT Y 1
CINT Y 0 1n
.ENDS BUF_BASIC_GEN
*$
.SUBCKT NOR2_BASIC_GEN A B Y PARAMS: VDD=1 VSS=0 VTHRESH=0.5 
E_ABMGATE    YINT 0 VALUE {{IF(V(A) > {VTHRESH}  |  
+ V(B) > {VTHRESH},{VSS},{VDD})}}
RINT YINT Y 1
CINT Y 0 1n
.ENDS NOR2_BASIC_GEN
*$
.subckt rvar 101 102 201 202 Params: Rref=1
* nodes : 101 102 : nodes between which variable resistance is placed
* 201 202 : nodes to whose voltage the resistance is proportional
* parameters : rref : reference value of the resistance
rin 201 202 1G; input resistance
r 301 0 {rref}
fcopy 0 301 vsense 1; copy output current thru Z
eout 101 106 poly(2) 201 202 301 0 0 0 0 0 1; multiply VoverZ with Vctrl
vsense 106 102 0; sense iout
.ends
*$