***
*$
*  TPS2378 Model
*****************************************************************************
*  (C) Copyright 2013 Texas Instruments Incorporated. All rights reserved.
*****************************************************************************
** This model is designed as an aid for customers of Texas Instruments.
** TI and its licensors and suppliers make no warrenties, either expressed
** or implied, with respect to this model, including the warranties of 
** merchantability or fitness for a particular purpose.  The model is
** provided solely on an "as is" basis.  The entire risk as to its quality
** and performance is with the customer
*****************************************************************************
*
** Released by: WEBENCH(R) Design Center, Texas Instruments Inc.
* Part: TPS2378
* Date: 10/04/2013
* Model Type: TRANSIENT
* Simulator: PSPICE
* Simulator Version: 16.2
* EVM Order Number: TPS2378EVM-105
* EVM Users Guide: SLVU682 - March 2012
* Datasheet: SLVSB99A - MARCH 2012 - REVISED MARCH 2012
*
* Model Version: Final 1.00
*
*****************************************************************************
*
* Updates:
*
* Final 1.00
* Release to Web.
*
*****************************************************************************
*
* Model Usage Notes:
* 
* 1. Input and quiescent current of the part have not been modeled.
* 2. Temperature effects have not been modeled.
* 3. Noise has not been modeled.
*
*****************************************************************************
* source TPS2378_TRANS
.SUBCKT TPS2378 VDD DEN CLS VSS RTN CDB T2P APD
X_TPS2378_U6_U1         TPS2378_U6_N00104 RTN TPS2378_U6_RG_HIGH COMP_BASIC_GEN
+  PARAMS: VDD=1 VSS=0 VTHRESH=0.5
X_TPS2378_U6_U3         TPS2378_U6_N7424750 TPS2378_U6_RG_LOW
+  TPS2378_U6_N7424975 OR2_BASIC_GEN PARAMS: VDD=1 VSS=0 VTHRESH=500E-3
X_TPS2378_U6_U5         TPS2378_PD_UVLOB TPS2378_U6_N7424750 INV_BASIC_GEN
+  PARAMS: VDD=1 VSS=0 VTHRESH=500E-3
X_TPS2378_U6_U2         RTN TPS2378_U6_N7422919 TPS2378_U6_N7422984
+  TPS2378_U6_N7504955 COMPHYS_BASIC_GEN PARAMS: VDD=1 VSS=0 VTHRESH=0.5
V_TPS2378_U6_V1         TPS2378_U6_N00104 VSS 0.95Vdc
X_TPS2378_U6_U6         TPS2378_U6_N7425043 TPS2378_U6_N7424975 TPS2378_RTN_GD
+  N7425456 SRLATCHSHP_BASIC_GEN PARAMS: VDD=1 VSS=0 VTHRESH=0.5
V_TPS2378_U6_V2         TPS2378_U6_N7422919 VSS 12.3
V_TPS2378_U6_V3         TPS2378_U6_N7422984 VSS 0.25Vdc
X_TPS2378_U6_U4         TPS2378_U6_RG_HIGH TPS2378_PD_UVLOB TPS2378_U6_N7425043
+  AND2_BASIC_GEN PARAMS: VDD=1 VSS=0 VTHRESH=500E-3
X_TPS2378_U6_U38         TPS2378_U6_N7504955 TPS2378_U6_RG_LOW
+  BUF_DELAY_BASIC_GEN PARAMS: VDD=1 VSS=0 VTHRESH=0.5 DELAY=800u
X_TPS2378_U5_U16         TPS2378_CLASS_RESETB TPS2378_U5_N7440911 INV_BASIC_GEN
+  PARAMS: VDD=1 VSS=0 VTHRESH=500E-3
X_TPS2378_U5_U9         TPS2378_U5_N7439736 TPS2378_U5_N7439748
+  TPS2378_U5_N7439768 N7439760 SRLATCHRHP_BASIC_GEN PARAMS: VDD=1 VSS=0
+  VTHRESH=0.5
X_TPS2378_U5_U17         TPS2378_U5_N7441063 TPS2378_U5_N7440899 INV_BASIC_GEN
+  PARAMS: VDD=1 VSS=0 VTHRESH=500E-3
X_TPS2378_U5_U12         TPS2378_CLASS_RESETB TPS2378_U5_N7439748 INV_BASIC_GEN
+  PARAMS: VDD=1 VSS=0 VTHRESH=500E-3
X_TPS2378_U5_U13         TPS2378_U5_N7439884 TPS2378_U5_N7439736 INV_BASIC_GEN
+  PARAMS: VDD=1 VSS=0 VTHRESH=500E-3
X_TPS2378_U5_U1         TPS2378_U5_N00196 TPS2378_U5_N00206 TPS2378_U5_N00237
+  N00228 SRLATCHRHP_BASIC_GEN PARAMS: VDD=1 VSS=0 VTHRESH=0.5
X_TPS2378_U5_U14         TPS2378_ATCLKB TPS2378_U5_N7439768 TPS2378_U5_N7441063
+  NAND2_BASIC_GEN PARAMS: VDD=1 VSS=0 VTHRESH=500E-3
X_TPS2378_U5_U6         TPS2378_U5_N7438400 TPS2378_U5_N7438412
+  TPS2378_U5_N7439523 N7438424 SRLATCHRHP_BASIC_GEN PARAMS: VDD=1 VSS=0
+  VTHRESH=0.5
X_TPS2378_U5_U2         TPS2378_CLASS_RESETB TPS2378_U5_N00206 INV_BASIC_GEN
+  PARAMS: VDD=1 VSS=0 VTHRESH=500E-3
X_TPS2378_U5_U7         TPS2378_CLASS_RESETB TPS2378_U5_N7438412 INV_BASIC_GEN
+  PARAMS: VDD=1 VSS=0 VTHRESH=500E-3
X_TPS2378_U5_U11         TPS2378_ATCLKB TPS2378_U5_N7440466 INV_BASIC_GEN
+  PARAMS: VDD=1 VSS=0 VTHRESH=500E-3
X_TPS2378_U5_U8         TPS2378_U5_N7438719 TPS2378_U5_N7438400 INV_BASIC_GEN
+  PARAMS: VDD=1 VSS=0 VTHRESH=500E-3
X_TPS2378_U5_U3         TPS2378_ATCLKB TPS2378_U5_N00196 INV_BASIC_GEN PARAMS:
+  VDD=1 VSS=0 VTHRESH=500E-3
X_TPS2378_U5_U4         TPS2378_U5_N00237 TPS2378_FIRST_CLASS BUF_BASIC_GEN
+  PARAMS: VDD=1 VSS=0 VTHRESH=0.5
X_TPS2378_U5_U10         TPS2378_U5_N7440466 TPS2378_U5_N7439523
+  TPS2378_U5_N7439884 NAND2_BASIC_GEN PARAMS: VDD=1 VSS=0 VTHRESH=500E-3
X_TPS2378_U5_U5         TPS2378_ATCLKB TPS2378_FIRST_CLASS TPS2378_U5_N7438719
+  NAND2_BASIC_GEN PARAMS: VDD=1 VSS=0 VTHRESH=500E-3
X_TPS2378_U5_U15         TPS2378_U5_N7440899 TPS2378_U5_N7440911 TPS2378_AT
+  N7440923 SRLATCHRHP_BASIC_GEN PARAMS: VDD=1 VSS=0 VTHRESH=0.5
X_TPS2378_U8_U4         TPS2378_CLMODE TPS2378_U8_N7426711 INV_BASIC_GEN
+  PARAMS: VDD=1 VSS=0 VTHRESH=500E-3
X_TPS2378_U8_U647         TPS2378_U8_N7428241 VSS TPS2378_U8_N7427436
+  TPS2378_U8_N7432401 VCVSCLIP_PS PARAMS: GAIN=10000 VOMAX=10 VOMIN=-10
X_TPS2378_U8_U1         TPS2378_ENB TPS2378_SAFETY TPS2378_U8_N7424498
+  OR2_BASIC_GEN PARAMS: VDD=1 VSS=0 VTHRESH=500E-3
X_TPS2378_U8_U3         TPS2378_U8_GATE_OFF TPS2378_U8_GATE_ON INV_BASIC_GEN
+  PARAMS: VDD=1 VSS=0 VTHRESH=500E-3
V_TPS2378_U8_V1         TPS2378_U8_N7436648 VSS 45mVdc
X_TPS2378_U8_S12    TPS2378_U8_GATE_ON VSS TPS2378_U8_N7427909
+  TPS2378_U8_N7431047 FET_TPS2378_U8_S12 
X_TPS2378_U8_S11    TPS2378_U8_N7515355 VSS TPS2378_U8_N7431047 VSS
+  FET_TPS2378_U8_S11 
R_TPS2378_U8_R1         VSS TPS2378_U8_N7424921  350  
D_TPS2378_U8_D11         VSS TPS2378_U8_N7425769 D_D1 
C_TPS2378_U8_C5         VSS TPS2378_U8_N7427909  100p  
R_TPS2378_U8_R4         TPS2378_U8_N7428241 TPS2378_U8_N7427909  1e6  
X_TPS2378_U8_U6         TPS2378_ILIM_REF TPS2378_U8_N7424921
+  TPS2378_U8_N7426711 TPS2378_U8_N7427436 MUX2_BASIC_GEN PARAMS: VDD=1 VSS=0
+  VTHRESH=0.5
R_TPS2378_U8_R6         TPS2378_U8_N7425769 RTN  0.091  
R_TPS2378_U8_R5         VSS TPS2378_U8_N7432401  0.05  
C_TPS2378_U8_C6         VSS TPS2378_U8_N7428241  1p  
R_TPS2378_U8_R3         VSS TPS2378_U8_N7427436  1G  
R_TPS2378_U8_R2         TPS2378_U8_N7424921 TPS2378_ILIM_REF  2.15k  
X_TPS2378_U8_U656         TPS2378_U8_N7425769 TPS2378_U8_N7431047
+  TPS2378_U8_N7432401 NMOSIDEAL_PS PARAMS: K=0.4 VTH=1
X_TPS2378_U8_U5         TPS2378_U8_N7436648 TPS2378_U8_N7432401 TPS2378_OCB
+  COMP_BASIC_GEN PARAMS: VDD=1 VSS=0 VTHRESH=0.5
X_TPS2378_U8_U657         TPS2378_U8_GATE_OFF TPS2378_U8_N7515355
+  BUF_DELAY_BASIC_GEN PARAMS: VDD=1 VSS=0 VTHRESH=0.5 DELAY=1u
C_TPS2378_U8_C7         VSS TPS2378_U8_N7425769  1p  
X_TPS2378_U8_U2         TPS2378_U8_N7424498 TPS2378_ENSWB TPS2378_U8_GATE_OFF
+  OR2_BASIC_GEN PARAMS: VDD=1 VSS=0 VTHRESH=500E-3
D_TPS2378_U7_D13         TPS2378_U7_GS VDD D_D1 
G_TPS2378_U7_G3         TPS2378_GATE VSS TPS2378_U7_N7513154 VSS 1e-3
X_TPS2378_U7_U13         TPS2378_U7_N7508268 TPS2378_ENB TPS2378_U7_GF
+  NOR2_BASIC_GEN PARAMS: VDD=1 VSS=0 VTHRESH=500E-3
X_TPS2378_U7_U16         TPS2378_U7_N7531009 TPS2378_U7_GF TPS2378_U7_GL
+  NOR2_BASIC_GEN PARAMS: VDD=1 VSS=0 VTHRESH=500E-3
D_TPS2378_U7_D11         TPS2378_GATE TPS2378_U7_N7516518 D_D1 
X_TPS2378_U7_U43         TPS2378_U7_GS TPS2378_U7_N7534528 TPS2378_U7_N7530425
+  COMP_BASIC_GEN PARAMS: VDD=1 VSS=0 VTHRESH=0.5
X_TPS2378_U7_U40         TPS2378_OCB TPS2378_U7_N7506833 BUF_DELAY_BASIC_GEN
+  PARAMS: VDD=1 VSS=0 VTHRESH=0.5 DELAY=400u
V_TPS2378_U7_V6         TPS2378_U7_N7534528 VSS 1Vdc
X_TPS2378_U7_U7         TPS2378_ENSWB TPS2378_U7_N7506928 INV_BASIC_GEN PARAMS:
+  VDD=1 VSS=0 VTHRESH=500E-3
X_TPS2378_U7_S17    TPS2378_T2P_PRE 0 T2P RTN PD78_TPS2378_U7_S17 
X_TPS2378_U7_U8         TPS2378_U7_GF TPS2378_U7_N7513154 INV_BASIC_GEN PARAMS:
+  VDD=1 VSS=0 VTHRESH=500E-3
G_TPS2378_U7_G1         0 TPS2378_IPD_OFF TPS2378_U7_N7464709 0 2e-6
D_TPS2378_U7_D12         VSS TPS2378_GATE D_D1 
X_TPS2378_U7_S19    TPS2378_U7_N7525820 0 CDB RTN PD78_TPS2378_U7_S19 
X_TPS2378_U7_U42         TPS2378_CONV_OFF TPS2378_U7_N7525820
+  BUF_DELAY_BASIC_GEN PARAMS: VDD=1 VSS=0 VTHRESH=0.5 DELAY=3u
V_TPS2378_U7_V4         TPS2378_U7_N7520369 VSS 5.6Vdc
X_TPS2378_U7_U41         TPS2378_U7_N7506928 TPS2378_U7_N7506833 TPS2378_CLMODE
+  TPS2378_U7_N7508268 NAND3_BASIC_GEN PARAMS: VDD=1 VSS=0 VTHRESH=500E-3
V_TPS2378_U7_V2         TPS2378_U7_N7516518 VSS 10Vdc
G_TPS2378_U7_G4         TPS2378_GATE VSS TPS2378_U7_GL VSS 14e-3
R_TPS2378_U7_R1         RTN APD  2.8e6  
X_TPS2378_U7_U15         TPS2378_U7_N7533294 TPS2378_U7_GL TPS2378_U7_N7531009
+  NOR2_BASIC_GEN PARAMS: VDD=1 VSS=0 VTHRESH=500E-3
X_TPS2378_U7_U3         TPS2378_GATE TPS2378_U7_N7520369 TPS2378_U7_N7520353
+  TPS2378_GATEHI COMPHYS_BASIC_GEN PARAMS: VDD=1 VSS=0 VTHRESH=0.5
V_TPS2378_U7_V1         TPS2378_U7_N7439629 RTN 1.5
V_TPS2378_U7_V3         TPS2378_U7_N7462501 RTN 300m
V_TPS2378_U7_V5         TPS2378_U7_N7520353 VSS 20mVdc
X_TPS2378_U7_U2         APD TPS2378_U7_N7439629 TPS2378_U7_N7462501
+  TPS2378_U7_N7464709 COMPHYS_BASIC_GEN PARAMS: VDD=1 VSS=0 VTHRESH=0.5
X_TPS2378_U7_S18    TPS2378_SAFETY VSS TPS2378_GATE VSS PD78_TPS2378_U7_S18 
G_TPS2378_U7_G2         VDD TPS2378_U7_GS TPS2378_EN VSS 38e-6
X_TPS2378_U7_S15    TPS2378_U7_N7513154 VSS TPS2378_U7_GS VSS
+  PD78_TPS2378_U7_S15 
X_TPS2378_U7_U14         TPS2378_U7_GF TPS2378_U7_N7530425 TPS2378_U7_N7533294
+  NOR2_BASIC_GEN PARAMS: VDD=1 VSS=0 VTHRESH=500E-3
X_TPS2378_U7_S16    TPS2378_U7_GF VSS TPS2378_U7_GS TPS2378_GATE
+  PD78_TPS2378_U7_S16 
X_TPS2378_U2_F1    TPS2378_U2_N7423319 CLS VDD VSS CLASS_TPS2378_U2_F1 
X_TPS2378_U2_U3         TPS2378_U2_OFF TPS2378_U2_ON INV_BASIC_GEN PARAMS:
+  VDD=1 VSS=0 VTHRESH=500E-3
X_TPS2378_U2_U1         TPS2378_ENCLASSB TPS2378_SAFETY TPS2378_U2_N7504934
+  OR2_BASIC_GEN PARAMS: VDD=1 VSS=0 VTHRESH=500E-3
X_TPS2378_U2_S11    TPS2378_U2_ON VSS TPS2378_VREF TPS2378_U2_N7423319
+  CLASS_TPS2378_U2_S11 
X_TPS2378_U2_S10    TPS2378_U2_OFF VSS TPS2378_U2_N7423319 VSS
+  CLASS_TPS2378_U2_S10 
X_TPS2378_U2_U38         TPS2378_U2_N7504934 TPS2378_U2_OFF BUF_DELAY_BASIC_GEN
+  PARAMS: VDD=1 VSS=0 VTHRESH=0.5 DELAY=250u
X_TPS2378_U1_S11    TPS2378_U1_N7460622 VSS DEN VSS BIAS_TPS2378_U1_S11 
V_TPS2378_U1_V1         TPS2378_VREF VSS 2.53Vdc
X_TPS2378_U1_U41         TPS2378_MARK TPS2378_U1_N7460580 INV_BASIC_GEN PARAMS:
+  VDD=1 VSS=0 VTHRESH=500E-3
X_TPS2378_U1_U30         TPS2378_ENB TPS2378_U1_N7460580 TPS2378_U1_N7460622
+  AND2_BASIC_GEN PARAMS: VDD=1 VSS=0 VTHRESH=500E-3
G_TPS2378_U1_G1         VDD VSS TPS2378_EN VSS 140e-6
G_TPS2378_U1_G2         VDD TPS2378_ILIM_REF TPS2378_EN VSS 20e-6
R_TPS2378_R6         VSS TPS2378_SAFETY  1  
X_TPS2378_U4_U14         TPS2378_U4_OTSD_DGB TPS2378_U4_PDOFF_DGB
+  TPS2378_PD_UVLOB TPS2378_ENSWB NAND3_BASIC_GEN PARAMS: VDD=1 VSS=0
+  VTHRESH=500E-3
X_TPS2378_U4_U3         TPS2378_U4_OTSD TPS2378_U4_OTSDB INV_BASIC_GEN PARAMS:
+  VDD=1 VSS=0 VTHRESH=500E-3
X_TPS2378_U4_U12         TPS2378_U4_N7440782 TPS2378_CLASS_OVLO
+  TPS2378_U4_CLASS_WINDOW NOR2_BASIC_GEN PARAMS: VDD=1 VSS=0 VTHRESH=500E-3
X_TPS2378_U4_U17         TPS2378_BGGOOD TPS2378_U4_N7446057 TPS2378_CONV_OFF
+  TPS2378_U4_N7445119 NAND3_BASIC_GEN PARAMS: VDD=1 VSS=0 VTHRESH=500E-3
X_TPS2378_U4_U15         TPS2378_U4_N7443890 TPS2378_OCB TPS2378_CLMODE
+  TPS2378_ENGATEB NAND3_BASIC_GEN PARAMS: VDD=1 VSS=0 VTHRESH=500E-3
X_TPS2378_U4_U13         TPS2378_BGGOOD TPS2378_U4_N7440782 INV_BASIC_GEN
+  PARAMS: VDD=1 VSS=0 VTHRESH=500E-3
X_TPS2378_U4_U27         TPS2378_FIRST_CLASS TPS2378_U4_N7456680 INV_BASIC_GEN
+  PARAMS: VDD=1 VSS=0 VTHRESH=500E-3
X_TPS2378_U4_U39         TPS2378_APDOFF TPS2378_U4_N7440474 BUF_DELAY_BASIC_GEN
+  PARAMS: VDD=1 VSS=0 VTHRESH=0.5 DELAY=41u
X_TPS2378_U4_U8         TPS2378_U4_OTSD_DGB TPS2378_U4_PDOFF_DGB
+  TPS2378_U4_APDOFF_DG TPS2378_U4_CLASS_WINDOW TPS2378_ENCLASSB NAND4_BASIC_GEN
+  PARAMS: VDD=1 VSS=0 VTHRESH=500E-3
X_TPS2378_U4_U24         TPS2378_U4_N7455427 TPS2378_U4_ATENB TPS2378_AT
+  TPS2378_ATCLKB OR3_BASIC_GEN PARAMS: VDD=1 VSS=0 VTHRESH=500E-3
X_TPS2378_U4_U41         TPS2378_CLMODE TPS2378_BGGOOD TPS2378_U4_T2P
+  TPS2378_T2P_PRE AND3_BASIC_GEN PARAMS: VDD=1 VSS=0 VTHRESH=500E-3
X_TPS2378_U4_U11         TPS2378_APDOFF TPS2378_U4_N7440474 TPS2378_BGGOOD
+  TPS2378_U4_APDOFF_DG MUX2_BASIC_GEN PARAMS: VDD=1 VSS=0 VTHRESH=0.5
X_TPS2378_U4_U32         TPS2378_U4_APDOFF_DG TPS2378_U4_N7464430
+  TPS2378_U4_T2P NAND2_BASIC_GEN PARAMS: VDD=1 VSS=0 VTHRESH=500E-3
X_TPS2378_U4_U19         TPS2378_U4_N7448761 TPS2378_U4_N7450779 TPS2378_CLMODE
+  NAND2_BASIC_GEN PARAMS: VDD=1 VSS=0 VTHRESH=500E-3
X_TPS2378_U4_U26         TPS2378_BGGOOD TPS2378_U4_N7456680 TPS2378_MARK
+  NOR2_BASIC_GEN PARAMS: VDD=1 VSS=0 VTHRESH=500E-3
X_TPS2378_U4_U9         TPS2378_PDOFFB TPS2378_U4_N7440621 TPS2378_BGGOOD
+  TPS2378_U4_PDOFF_DGB MUX2_BASIC_GEN PARAMS: VDD=1 VSS=0 VTHRESH=0.5
X_TPS2378_U4_U22         TPS2378_U4_ATENB TPS2378_MRSTB TPS2378_U4_N7453099
+  NAND2_BASIC_GEN PARAMS: VDD=1 VSS=0 VTHRESH=500E-3
X_TPS2378_U4_U16         TPS2378_U4_N7445119 TPS2378_U4_N7446243
+  TPS2378_CONV_OFF NAND2_BASIC_GEN PARAMS: VDD=1 VSS=0 VTHRESH=500E-3
X_TPS2378_U4_U21         TPS2378_RTN_GD TPS2378_OCB TPS2378_U4_N7450779
+  NAND2_BASIC_GEN PARAMS: VDD=1 VSS=0 VTHRESH=500E-3
X_TPS2378_U4_U34         TPS2378_AT TPS2378_U4_N7464430 INV_BASIC_GEN PARAMS:
+  VDD=1 VSS=0 VTHRESH=500E-3
X_TPS2378_U4_U20         TPS2378_RTN_GD TPS2378_CLMODE TPS2378_U4_N7448761
+  NAND2_BASIC_GEN PARAMS: VDD=1 VSS=0 VTHRESH=500E-3
X_TPS2378_U4_U30         TPS2378_MRSTB TPS2378_MRSTB TPS2378_CLASS_RESETB
+  AND2_BASIC_GEN PARAMS: VDD=1 VSS=0 VTHRESH=500E-3
X_TPS2378_U4_U38         TPS2378_PDOFFB TPS2378_U4_N7440621 BUF_DELAY_BASIC_GEN
+  PARAMS: VDD=1 VSS=0 VTHRESH=0.5 DELAY=41u
X_TPS2378_U4_U23         TPS2378_U4_N7459038 TPS2378_U4_N7453099
+  TPS2378_U4_ATENB NAND2_BASIC_GEN PARAMS: VDD=1 VSS=0 VTHRESH=500E-3
X_TPS2378_U4_U28         TPS2378_PD_UVLOB TPS2378_U4_N7459038 INV_BASIC_GEN
+  PARAMS: VDD=1 VSS=0 VTHRESH=500E-3
X_TPS2378_U4_U5         TPS2378_GATEHI TPS2378_CLMODE TPS2378_U4_N7446057
+  NAND2_BASIC_GEN PARAMS: VDD=1 VSS=0 VTHRESH=500E-3
X_TPS2378_U4_U7         TPS2378_ENSWB TPS2378_U4_N7443890 INV_BASIC_GEN PARAMS:
+  VDD=1 VSS=0 VTHRESH=500E-3
R_TPS2378_U4_R1         TPS2378_U4_OTSD 0  1  
X_TPS2378_U4_U25         TPS2378_BGGOOD TPS2378_U4_N7455427 INV_BASIC_GEN
+  PARAMS: VDD=1 VSS=0 VTHRESH=500E-3
X_TPS2378_U4_U18         TPS2378_ENSWB TPS2378_CLMODE TPS2378_U4_N7446243
+  OR2_BASIC_GEN PARAMS: VDD=1 VSS=0 VTHRESH=500E-3
X_TPS2378_U4_U40         TPS2378_U4_OTSDB TPS2378_U4_OTSD_DGB
+  BUF_DELAY_BASIC_GEN PARAMS: VDD=1 VSS=0 VTHRESH=0.5 DELAY=20u
X_TPS2378_U3_U2         VDD TPS2378_U3_N7422919 TPS2378_U3_N7422984
+  TPS2378_PD_UVLOB COMPHYS_BASIC_GEN PARAMS: VDD=1 VSS=0 VTHRESH=0.5
X_TPS2378_U3_U1         TPS2378_IPD_OFF TPS2378_U3_N7439629 TPS2378_U3_N7441031
+  COMP_BASIC_GEN PARAMS: VDD=1 VSS=0 VTHRESH=0.5
V_TPS2378_U3_V1         TPS2378_U3_N7439629 VSS 1Vdc
X_TPS2378_U3_U12         TPS2378_EN TPS2378_ENB INV_BASIC_GEN PARAMS: VDD=1
+  VSS=0 VTHRESH=500E-3
X_TPS2378_U3_U7         TPS2378_U3_N7441031 TPS2378_APDOFF INV_BASIC_GEN
+  PARAMS: VDD=1 VSS=0 VTHRESH=500E-3
X_TPS2378_U3_U10         TPS2378_U3_N7441031 TPS2378_U3_N7442509 TPS2378_PDOFFB
+  NOR2_BASIC_GEN PARAMS: VDD=1 VSS=0 VTHRESH=500E-3
X_TPS2378_U3_U4         VDD TPS2378_U3_N7438031 TPS2378_U3_N7438035 TPS2378_EN
+  COMPHYS_BASIC_GEN PARAMS: VDD=1 VSS=0 VTHRESH=0.5
X_TPS2378_U3_U8         DEN TPS2378_U3_N7441417 TPS2378_U3_N7441421
+  TPS2378_U3_N7441545 COMPHYS_BASIC_GEN PARAMS: VDD=1 VSS=0 VTHRESH=0.5
V_TPS2378_U3_V2         TPS2378_U3_N7422919 VSS 38.1Vdc
V_TPS2378_U3_V6         TPS2378_U3_N7438031 VSS 12.5
V_TPS2378_U3_V8         TPS2378_U3_N7441417 VSS 3.813
V_TPS2378_U3_V7         TPS2378_U3_N7438035 VSS 1.6Vdc
V_TPS2378_U3_V9         TPS2378_U3_N7441421 VSS 113m
R_TPS2378_U3_R1         VSS TPS2378_IPD_OFF  1e6  
V_TPS2378_U3_V3         TPS2378_U3_N7422984 VSS 6.1Vdc
X_TPS2378_U3_U9         TPS2378_U3_N7441545 TPS2378_U3_N7442509 INV_BASIC_GEN
+  PARAMS: VDD=1 VSS=0 VTHRESH=500E-3
X_TPS2378_U3_U3         VDD TPS2378_U3_N7437377 TPS2378_U3_N7437381
+  TPS2378_CLASS_OVLO COMPHYS_BASIC_GEN PARAMS: VDD=1 VSS=0 VTHRESH=0.5
V_TPS2378_U3_V4         TPS2378_U3_N7437377 VSS 22Vdc
X_TPS2378_U3_U6         TPS2378_EN TPS2378_BGGOOD BUF_BASIC_GEN PARAMS: VDD=1
+  VSS=0 VTHRESH=0.5
V_TPS2378_U3_V5         TPS2378_U3_N7437381 VSS 0.780
X_TPS2378_U3_U11         VDD TPS2378_U3_N7442955 TPS2378_U3_N7442959
+  TPS2378_MRSTB COMPHYS_BASIC_GEN PARAMS: VDD=1 VSS=0 VTHRESH=0.5
X_TPS2378_U3_S11    TPS2378_MARK VSS VDD VSS COMPS_TPS2378_U3_S11 
V_TPS2378_U3_V10         TPS2378_U3_N7442955 VSS 4.02
V_TPS2378_U3_V11         TPS2378_U3_N7442959 VSS 120m
.ENDS TPS2378

.subckt FET_TPS2378_U8_S12 1 2 3 4  
S_TPS2378_U8_S12         3 4 1 2 _TPS2378_U8_S12
RS_TPS2378_U8_S12         1 2 1G
.MODEL         _TPS2378_U8_S12 VSWITCH Roff=10G Ron=10 Voff=0.25V Von=0.75V
.ends FET_TPS2378_U8_S12

.subckt FET_TPS2378_U8_S11 1 2 3 4  
S_TPS2378_U8_S11         3 4 1 2 _TPS2378_U8_S11
RS_TPS2378_U8_S11         1 2 1G
.MODEL         _TPS2378_U8_S11 VSWITCH Roff=10G Ron=1e-3 Voff=0.25V Von=0.75V
.ends FET_TPS2378_U8_S11

.subckt PD78_TPS2378_U7_S17 1 2 3 4  
S_TPS2378_U7_S17         3 4 1 2 _TPS2378_U7_S17
RS_TPS2378_U7_S17         1 2 1G
.MODEL         _TPS2378_U7_S17 VSWITCH Roff=1G Ron=60 Voff=0.25V Von=0.75V
.ends PD78_TPS2378_U7_S17

.subckt PD78_TPS2378_U7_S19 1 2 3 4  
S_TPS2378_U7_S19         3 4 1 2 _TPS2378_U7_S19
RS_TPS2378_U7_S19         1 2 1G
.MODEL         _TPS2378_U7_S19 VSWITCH Roff=1G Ron=60 Voff=0.25V Von=0.75V
.ends PD78_TPS2378_U7_S19

.subckt PD78_TPS2378_U7_S18 1 2 3 4  
S_TPS2378_U7_S18         3 4 1 2 _TPS2378_U7_S18
RS_TPS2378_U7_S18         1 2 1G
.MODEL         _TPS2378_U7_S18 VSWITCH Roff=10G Ron=30 Voff=0.25V Von=0.75V
.ends PD78_TPS2378_U7_S18

.subckt PD78_TPS2378_U7_S15 1 2 3 4  
S_TPS2378_U7_S15         3 4 1 2 _TPS2378_U7_S15
RS_TPS2378_U7_S15         1 2 1G
.MODEL         _TPS2378_U7_S15 VSWITCH Roff=10G Ron=30k Voff=0.25V Von=0.75V
.ends PD78_TPS2378_U7_S15

.subckt PD78_TPS2378_U7_S16 1 2 3 4  
S_TPS2378_U7_S16         3 4 1 2 _TPS2378_U7_S16
RS_TPS2378_U7_S16         1 2 1G
.MODEL         _TPS2378_U7_S16 VSWITCH Roff=10G Ron=30k Voff=0.25V Von=0.75V
.ends PD78_TPS2378_U7_S16

.subckt CLASS_TPS2378_U2_F1 1 2 3 4  
F_TPS2378_U2_F1         3 4 VF_TPS2378_U2_F1 1
VF_TPS2378_U2_F1         1 2 0V
.ends CLASS_TPS2378_U2_F1

.subckt CLASS_TPS2378_U2_S11 1 2 3 4  
S_TPS2378_U2_S11         3 4 1 2 _TPS2378_U2_S11
RS_TPS2378_U2_S11         1 2 1G
.MODEL         _TPS2378_U2_S11 VSWITCH Roff=10G Ron=1e-3 Voff=0.25V Von=0.75V
.ends CLASS_TPS2378_U2_S11

.subckt CLASS_TPS2378_U2_S10 1 2 3 4  
S_TPS2378_U2_S10         3 4 1 2 _TPS2378_U2_S10
RS_TPS2378_U2_S10         1 2 1G
.MODEL         _TPS2378_U2_S10 VSWITCH Roff=10G Ron=1e-3 Voff=0.25V Von=0.75V
.ends CLASS_TPS2378_U2_S10

.subckt BIAS_TPS2378_U1_S11 1 2 3 4  
S_TPS2378_U1_S11         3 4 1 2 _TPS2378_U1_S11
RS_TPS2378_U1_S11         1 2 1G
.MODEL         _TPS2378_U1_S11 VSWITCH Roff=10G Ron=10 Voff=0.25V Von=0.75V
.ends BIAS_TPS2378_U1_S11

.subckt COMPS_TPS2378_U3_S11 1 2 3 4  
S_TPS2378_U3_S11         3 4 1 2 _TPS2378_U3_S11
RS_TPS2378_U3_S11         1 2 1G
.MODEL         _TPS2378_U3_S11 VSWITCH Roff=10G Ron=10k Voff=0.25V Von=0.75V
.ends COMPS_TPS2378_U3_S11
*$
.SUBCKT COMP_BASIC_GEN INP INM Y PARAMS: VDD=1 VSS=0 VTHRESH=0.5	
E_ABM Yint 0 VALUE {IF (V(INP) > 
+ V(INM), {VDD},{VSS})}
R1 Yint Y 1
C1 Y 0 1n
.ENDS COMP_BASIC_GEN
*$
.SUBCKT COMPHYS_BASIC_GEN INP INM HYS OUT PARAMS: VDD=1 VSS=0 VTHRESH=0.5	
EIN INP1 INM1 INP INM 1 
EHYS INP1 INP2 VALUE { IF( V(1) > {VTHRESH},-V(HYS),0) }
EOUT OUT 0 VALUE { IF( V(INP2)>V(INM1), {VDD} ,{VSS}) }
R1 OUT 1 1
C1 1 0 5n
RINP1 INP1 0 1K
.ENDS COMPHYS_BASIC_GEN
*$
.SUBCKT AND2_BASIC_GEN A B Y PARAMS: VDD=1 VSS=0 VTHRESH=0.5 
E_ABMGATE    YINT 0 VALUE {{IF(V(A) > {VTHRESH}  &  
+ V(B) > {VTHRESH},{VDD},{VSS})}}
RINT YINT Y 1
CINT Y 0 1n
.ENDS AND2_BASIC_GEN
*$
.SUBCKT NAND2_BASIC_GEN A B Y PARAMS: VDD=1 VSS=0 VTHRESH=0.5 
E_ABMGATE    YINT 0 VALUE {{IF(V(A) > {VTHRESH}  &  
+ V(B) > {VTHRESH},{VSS},{VDD})}}
RINT YINT Y 1
CINT Y 0 1n
.ENDS NAND2_BASIC_GEN
*$
.SUBCKT NAND3_BASIC_GEN A B C Y PARAMS: VDD=1 VSS=0 VTHRESH=0.5 
E_ABMGATE    YINT 0 VALUE {{IF(V(A) > {VTHRESH}  &  
+ V(B) > {VTHRESH} &
+ V(C) > {VTHRESH},{VSS},{VDD})}}
RINT YINT Y 1
CINT Y 0 1n
.ENDS NAND3_BASIC_GEN
*$
.SUBCKT NAND4_BASIC_GEN A B C D Y PARAMS: VDD=1 VSS=0 VTHRESH=0.5 
E_ABMGATE    YINT 0 VALUE {{IF(V(A) > {VTHRESH}  &  
+ V(B) > {VTHRESH} &
+ V(C) > {VTHRESH} &
+ V(D) > {VTHRESH},{VSS},{VDD})}}
RINT YINT Y 1
CINT Y 0 1n
.ENDS NAND4_BASIC_GEN
*$
.SUBCKT OR2_BASIC_GEN A B Y PARAMS: VDD=1 VSS=0 VTHRESH=0.5 
E_ABMGATE    YINT 0 VALUE {{IF(V(A) > {VTHRESH}  |  
+ V(B) > {VTHRESH},{VDD},{VSS})}}
RINT YINT Y 1
CINT Y 0 1n
.ENDS OR2_BASIC_GEN
*$
.SUBCKT OR3_BASIC_GEN A B C Y PARAMS: VDD=1 VSS=0 VTHRESH=0.5 
E_ABMGATE    YINT 0 VALUE {{IF(V(A) > {VTHRESH}  |  
+ V(B) > {VTHRESH} |
+ V(C) > {VTHRESH},{VDD},{VSS})}}
RINT YINT Y 1
CINT Y 0 1n
.ENDS OR3_BASIC_GEN
*$
.SUBCKT NOR2_BASIC_GEN A B Y PARAMS: VDD=1 VSS=0 VTHRESH=0.5 
E_ABMGATE    YINT 0 VALUE {{IF(V(A) > {VTHRESH}  |  
+ V(B) > {VTHRESH},{VSS},{VDD})}}
RINT YINT Y 1
CINT Y 0 1n
.ENDS NOR2_BASIC_GEN
*$
.SUBCKT INV_BASIC_GEN A  Y PARAMS: VDD=1 VSS=0 VTHRESH=0.5 
E_ABMGATE    YINT 0 VALUE {{IF(V(A) > {VTHRESH} , 
+ {VSS},{VDD})}}
RINT YINT Y 1
CINT Y 0 1n
.ENDS INV_BASIC_GEN
*$
.SUBCKT BUF_DELAY_BASIC_GEN A  Y PARAMS: VDD=1 VSS=0 VTHRESH=0.5 DELAY = 10n 
E_ABMGATE1    YINT1 0 VALUE {{IF(V(A) > {VTHRESH} , 
+ {VDD},{VSS})}}
RINT YINT1 YINT2 1
CINT YINT2 0 {DELAY*1.3}
E_ABMGATE2    YINT3 0 VALUE {{IF(V(YINT2) > {VTHRESH} , 
+ {VDD},{VSS})}}
RINT2 YINT3 Y 1
CINT2 Y 0 1n
.ENDS BUF_DELAY_BASIC_GEN
*$
.SUBCKT AND3_BASIC_GEN A B C Y PARAMS: VDD=1 VSS=0 VTHRESH=0.5 
E_ABMGATE    YINT 0 VALUE {{IF(V(A) > {VTHRESH}  &  
+ V(B) > {VTHRESH} &
+ V(C) > {VTHRESH},{VDD},{VSS})}}
RINT YINT Y 1
CINT Y 0 1n
.ENDS AND3_BASIC_GEN
*$
.SUBCKT BUF_BASIC_GEN A  Y PARAMS: VDD=1 VSS=0 VTHRESH=0.5 
E_ABMGATE    YINT 0 VALUE {{IF(V(A) > {VTHRESH} , 
+ {VDD},{VSS})}}
RINT YINT Y 1
CINT Y 0 1n
.ENDS BUF_BASIC_GEN
*$
**Set has higher priority in this latch
.SUBCKT SRLATCHSHP_BASIC_GEN S R Q QB PARAMS: VDD=1 VSS=0 VTHRESH=0.5 
GQ 0 Qint VALUE = {IF(V(S) > {VTHRESH},5,IF(V(R)>{VTHRESH},-5, 0))}
CQint Qint 0 1n
RQint Qint 0 1000MEG
D_D10 Qint MY5 D_D1
V1 MY5 0 {VDD}
D_D11 MYVSS Qint D_D1
V2 MYVSS 0 {VSS} 
EQ Qqq 0 Qint 0 1
X3 Qqq Qqqd1 BUF_BASIC_GEN PARAMS: VDD={VDD} VSS={VSS} VTHRESH={VTHRESH}
RQq Qqqd1 Q 1
EQb Qbr 0 VALUE = {IF( V(Q) > {VTHRESH}, {VSS},{VDD})}
RQb Qbr QB 1 
Cdummy1 Q 0 1n 
Cdummy2 QB 0 1n 
.IC V(Qint) {VSS}
.ENDS SRLATCHSHP_BASIC_GEN
*$
**** NMOS IDEAL *****************************************************************************************
.SUBCKT NMOSIDEAL_PS D G S PARAMS: k=1 vth=0
RDDUM D 0 1e11
RSDUM S 0 1e11
RGDUM G 0 1e11
EON Yp 0 VALUE={IF(V(G,S) > {vth}, 1, 0)}
GOUT D S VALUE={IF(V(D,S) >= (V(G,S)-{vth}), V(Yp)*({k}/2)*(V(G,S)-{vth})**2, V(Yp)*({k})*(V(G,S)-{vth}-V(D,S)/2)*V(D,S))}
.ENDS NMOSIDEAL_PS
*$
**Reset has higher priority in this latch
.SUBCKT SRLATCHRHP_BASIC_GEN S R Q QB PARAMS: VDD=1 VSS=0 VTHRESH=0.5 
GQ 0 Qint VALUE = {IF(V(R) > {VTHRESH},-5,IF(V(S)>{VTHRESH},5, 0))}
CQint Qint 0 1n
RQint Qint 0 1000MEG
D_D10 Qint MY5 D_D1
V1 MY5 0 {VDD}
D_D11 MYVSS Qint D_D1
V2 MYVSS 0 {VSS} 
EQ Qqq 0 Qint 0 1
X3 Qqq Qqqd1 BUF_BASIC_GEN PARAMS: VDD={VDD} VSS={VSS} VTHRESH={VTHRESH}
RQq Qqqd1 Q 1
EQb Qbr 0 VALUE = {IF( V(Q) > {VTHRESH}, {VSS},{VDD})}
RQb Qbr QB 1 
Cdummy1 Q 0 1n 
Cdummy2 QB 0 1n
.IC V(Qint) {VSS}
.ENDS SRLATCHRHP_BASIC_GEN
*$
.SUBCKT MUX2_BASIC_GEN A B S Y PARAMS: VDD=1 VSS=0 VTHRESH=0.5 
E_ABMGATE  YINT 0 VALUE {{IF(V(S) > {VTHRESH},  
+ V(B),V(A))}}
RINT YINT Y 1
CINT Y 0 1n
.ENDS MUX2_BASIC_GEN
*$
****** CLIPPED VOLTAGE CONTROL VOLTAGE SOURCE ********************
*Status: verified
.SUBCKT VCVSCLIP_PS YP YN POS NEG PARAMS: gain=1 vomax=1 vomin=-1
RP POS 0 1e11
CP POS 0 0.01pF
RN NEG 0 1e11
CN NEG 0 0.01pF
ROUTN YN 0 1e11
COUTN YN 0 0.01pF
***** boolean ************
EVCLP YP YN VALUE={LIMIT((V(POS)-V(NEG))*{gain},{vomin},{vomax})}
**************************
RO YP 0 1e11
.ENDS VCVSCLIP_PS
*$


** Wrapper definitions for AA legacy support **


.model D_D1 d

+ is=1e-015
+ tt=1e-011
+ rs=0.05
+ n=0.1

