*$
*TPS22963C
*****************************************************************************
* (C) Copyright 2019 Texas Instruments Incorporated. All rights reserved.                                            
*****************************************************************************
** This model is designed as an aid for customers of Texas Instruments.
** TI and its licensors and suppliers make no warranties, either expressed
** or implied, with respect to this model, including the warranties of 
** merchantability or fitness for a particular purpose.  The model is
** provided solely on an "as is" basis.  The entire risk as to its quality
** and performance is with the customer
*****************************************************************************
*
* This model is subject to change without notice. Texas Instruments
* Incorporated is not responsible for updating this model.
*
*****************************************************************************
*
** Released by: Texas Instruments Inc.
* Part: TPS22963C
* Date: 02JUL2019
* Model Type: TRANSIENT 
* Simulator: PSPICE
* Simulator Version: 16.2.0.p001
* EVM Order Number: TPS22963/64EVM-029
* EVM Users Guide: SLVU816  March 2013
* Datasheet: SLVSBS6 - JUNE 2013
* Topologies Supported: NA
*
* Model Version: Final 1.10
*
*****************************************************************************
*
* Updates:
*
* Final 1.10
* Removed the output discharge functionality from the model.
* 
* 
*
* Final 1.00
* Release to Web.
*
*****************************************************************************
*
* Model Usage Notes:
*
* 1. The following features have been modeled
*      a. Switching Characteristics and variation with VIN
*      b. RON and variation with VIN
*      c. Quiescent Current v/s VIN at room temperature
*      d. IIN(OFF) v/s VIN at room temperature
*      e. Reverse Current Protection v/s VIN at room temperature
*      f. ON Threshold and Hysteresis v/s VIN
* 2. Temperature effects are note been modeled. 
*
*****************************************************************************
.SUBCKT TPS22963C GND ON VIN_0 VIN_1 VOUT_0 VOUT_1  
X_U1_U44         U1_ON_INT1 ON_INT U1_N427944 AND2_BASIC_GEN PARAMS: VDD=1
+  VSS=0 VTHRESH=500E-3
E_U1_E1         U1_RISING_THRESH 0 TABLE { V(VIN_0, 0) } 
+ ( (0,0.556)(1,0.556)(1.8,0.689)(2.5,0.779)(3.3,0.869)(5,1.044)(6,1.142) )
E_U1_ABM5         U1_N14557767 0 VALUE { IF(V(U1_ON_INT1) < 0.5, V(VIN_0),0)   
+  }
X_U1_S1    U1_N427964 0 U1_N427858 0 CONTROL_U1_S1 
D_U1_D3         U1_N427858 U1_N14507001 DD 
G_U1_G4         U1_N427858 0 TABLE { V(U1_N14557703, 0) } 
+ ( (0,0)(1,200u)(1.8,250u)(2.5,500u)(3.3,500u)(5,625u)(6,700u) )
X_U1_S2    U1_N427944 0 U1_N427908 U1_N427858 CONTROL_U1_S2 
E_U1_ABM4         U1_N14556373 0 VALUE { IF(V(U1_ON_INT1) >= 0.5, V(VIN_0),0)  
+   }
X_U1_U1         ON U1_RISING_THRESH U1_HYS U1_ON_INT1 COMPHYS_BASIC_GEN PARAMS:
+  VDD=1 VSS=0 VTHRESH=0.5
R_U1_R3         U1_N14557767 U1_N14557703  10 TC=0,0 
X_U1_U46         ON_INT U1_ON_INT1 U1_N427964 NOR2_BASIC_GEN PARAMS: VDD=1
+  VSS=0 VTHRESH=500E-3
E_U1_E2         U1_HYS 0 TABLE { V(VIN_0, 0) } 
+ ( (0,0.029)(1,0.029)(1.8,0.049)(2.5,0.064)(3.3,0.079)(5,0.115)(6,0.136) )
G_U1_G3         U1_N14507001 U1_N427858 TABLE { V(U1_N14556309, 0) } 
+ ( (0,0)(1,1000u)(1.8,1000u)(2.5,1000u)(3.3,1000u)(5,1000u)(6,1000u) )
V_U1_V5         U1_N14507001 0 2
C_U1_C4         0 U1_N14557703  1n  
X_U1_U43         U1_N427858 ON_INT BUF_BASIC_GEN PARAMS: VDD=1 VSS=0
+  VTHRESH=0.5
R_U1_R2         U1_N14556373 U1_N14556309  10 TC=0,0 
C_U1_C3         0 U1_N14556309  1n  
C_U1_C1         0 U1_N427858  1n  
V_U1_V4         U1_N427908 0 1
E_U2_E3         U2_N14596942 0 TABLE { V(VOUT_0, 0) } 
+ ( (0,0.25)(1,0.25)(1.8,0.2)(2.5,0.26)(3.3,0.28)(5,0.31)(6,0.33) )
E_U2_E1         U2_N14580272 0 TABLE { V(U2_N14580164, 0) } 
+ ( (0,0)(1,0.35u)(1.8,0.48u)(2.5,0.61u)(3.3,0.78u)(5,0.93u)(6,1.02u) )
X_U2_S2    U2_N14546746 0 U2_N14519107 VOUT_0 DRIVER_U2_S2 
X_U2_S5    U2_N14596722 0 VIN_0 U2_N14519050 DRIVER_U2_S5 
E_U2_ABM1         U2_N14524493 0 VALUE { IF (V(VIN_0) <=3.7, 2.88*V(VIN_0) , 
+  V(VIN_0)+7)    }
E_U2_ABM5         U2_N14580282 0 VALUE { V(U2_N14580272)*V(U2_K)    }
M_U2_M3         U2_N14519050 U2_VGATE U2_N14519107 U2_N14519107 NMOS01         
+   
G_U2_G3         U2_N14524493 U2_VGATE U2_N14580282 0 1
E_U2_ABM6         U2_K 0 VALUE { IF(V(U2_VGATE)<1.1, V(U2_N14580806) , 1 )    }
E_U2_E2         U2_N14580806 0 TABLE { V(VIN_0, 0) } 
+ ( (0,0)(1,2.3)(1.8,2.2)(2.5,1.9)(3.3,1.43)(5,1.3)(6,1.2) )
D_U2_D4         U2_N14519107 U2_N14519050 DD 
E_U2_ABM7         U2_N14580226 0 VALUE { IF(V(ON_INT) >= 0.5, V(VIN_0),0)    }
E_U2_ABM8         U2_N14596722 0 VALUE { IF(V(ON_INT) >= 0.5, 1,
+  V(U2_N14596942))    }
X_U2_S4    ON_INT 0 U2_VGATE U2_N14519107 DRIVER_U2_S4 
E_U2_ABM2         U2_N14546746 0 VALUE { V(VIN_0)     }
R_U2_R2         U2_N14580226 U2_N14580164  10 TC=0,0 
C_U2_C4         U2_N14519107 U2_VGATE  150p  
C_U2_C2         0 U2_N14580164  1n  
D_U2_D6         U2_VGATE U2_N14524493 DD 
C_U2_C5         U2_VGATE U2_N14519050  200p  
R_U3_R2         U3_N14550194 U3_N14548749  10 TC=0,0 
C_U3_C2         0 U3_N14548749  1n  
G_U3_G2         VIN_0 GND TABLE { V(U3_N14548749, 0) } 
+ ( (0,0)(0.99,0)(1.0,0.094u)(1.8,0.189u)(2.5,0.347u)(3.3, 0.439u)(5,
+  0.775u)(6, 0.95u) )
G_U3_G1         VIN_0 GND TABLE { V(U3_N14543258, 0) } 
+ ( (0,0)(0.99,0)(1.0,25u)(1.8,36u)(2.5,39u)(3.3, 41u)(5, 54u)(6, 51u) )
C_U3_C1         0 U3_N14543258  1n  
E_U3_ABM1         U3_N14549380 0 VALUE { IF (V(ON_INT) >= 0.5 , V(VIN_0) ,  0) 
+    }
E_U3_ABM2         U3_N14550194 0 VALUE { IF (V(ON_INT) < 0.5 , V(VIN_0) ,  0)  
+   }
R_U3_R1         U3_N14549380 U3_N14543258  10 TC=0,0 
.ENDS TPS22963C
*$
.subckt CONTROL_U1_S1 1 2 3 4  
S_U1_S1         3 4 1 2 _U1_S1
RS_U1_S1         1 2 1G
.MODEL         _U1_S1 VSWITCH Roff=100e6 Ron=1m Voff=0.2 Von=0.8
.ends CONTROL_U1_S1
*$
.subckt CONTROL_U1_S2 1 2 3 4  
S_U1_S2         3 4 1 2 _U1_S2
RS_U1_S2         1 2 1G
.MODEL         _U1_S2 VSWITCH Roff=100e6 Ron=1m Voff=0.2 Von=0.8
.ends CONTROL_U1_S2
*$
.subckt DRIVER_U2_S2 1 2 3 4  
S_U2_S2         3 4 1 2 _U2_S2
RS_U2_S2         1 2 1G
.MODEL         _U2_S2 VSWITCH Roff=8.5m Ron=1m Voff=1.2 Von=0.5
.ends DRIVER_U2_S2
*$
.subckt DRIVER_U2_S5 1 2 3 4  
S_U2_S5         3 4 1 2 _U2_S5
RS_U2_S5         1 2 1G
.MODEL         _U2_S5 VSWITCH Roff=1.8E9 Ron=1m Voff=0.2 Von=0.8
.ends DRIVER_U2_S5
*$
.subckt DRIVER_U2_S4 1 2 3 4  
S_U2_S4         3 4 1 2 _U2_S4
RS_U2_S4         1 2 1G
.MODEL         _U2_S4 VSWITCH Roff=1e9 Ron=1 Voff=0.8 Von=0.2
.ends DRIVER_U2_S4
*$
.model DD d
+ is=1e-015
+ n=0.01
+ tt=1e-011
*$
.model NMOS01 nmos
+ vto=1.15
+ kp=48
+ lambda=0.001
*$
.SUBCKT AND2_BASIC_GEN A B Y PARAMS: VDD=1 VSS=0 VTHRESH=0.5 
E_ABMGATE    YINT 0 VALUE {{IF(V(A) > {VTHRESH}  &  
+ V(B) > {VTHRESH},{VDD},{VSS})}}
RINT YINT Y 1
CINT Y 0 1n
.ENDS AND2_BASIC_GEN
*$
.SUBCKT COMPHYS_BASIC_GEN INP INM HYS OUT PARAMS: VDD=1 VSS=0 VTHRESH=0.5	
EIN INP1 INM1 INP INM 1 
EHYS INP1 INP2 VALUE { IF( V(1) > {VTHRESH},-V(HYS),0) }
EOUT OUT 0 VALUE { IF( V(INP2)>V(INM1), {VDD} ,{VSS}) }
R1 OUT 1 1
C1 1 0 5n
RINP1 INP1 0 1K
.ENDS COMPHYS_BASIC_GEN
*$
.SUBCKT NOR2_BASIC_GEN A B Y PARAMS: VDD=1 VSS=0 VTHRESH=0.5 
E_ABMGATE    YINT 0 VALUE {{IF(V(A) > {VTHRESH}  |  
+ V(B) > {VTHRESH},{VSS},{VDD})}}
RINT YINT Y 1
CINT Y 0 1n
.ENDS NOR2_BASIC_GEN
*$
.SUBCKT BUF_BASIC_GEN A  Y PARAMS: VDD=1 VSS=0 VTHRESH=0.5 
E_ABMGATE    YINT 0 VALUE {{IF(V(A) > {VTHRESH} , 
+ {VDD},{VSS})}}
RINT YINT Y 1
CINT Y 0 1n
.ENDS BUF_BASIC_GEN
*$