*$
* TPS22908 
*****************************************************************************
* (C) Copyright 2012 Texas Instruments Incorporated. All rights reserved.
*****************************************************************************
** This model is designed as an aid for customers of Texas Instruments.
** TI and its licensors and suppliers make no warranties, either expressed
** or implied, with respect to this model, including the warranties of
** merchantability or fitness for a particular purpose. The model is
** provided solely on an "as is" basis. The entire risk as to its quality
** and performance is with the customer
*****************************************************************************
*
** Released by: WEBENCH Design Center, Texas Instruments Inc.
* Part: TPS22908
* Date: 23AUG2012 
* Model Type: Transient
* Simulator: PSpice
* Simulator Version: 16.2.0.p001
* EVM Order Number: 
* EVM Users Guide: 
* Datasheet: SLVSBI7A
* Model Version: Final 1.00
*
*****************************************************************************
*
* Updates:
*
* Final 1.00
* Release to Web
*
*****************************************************************************
.SUBCKT TPS22908 ON VIN VOUT GND
X_U1_U44         U1_ON_INT1 N00157 U1_N427944 AND2_BASIC_GEN PARAMS: VDD=1
+  VSS=0 VTHRESH=500E-3
X_U1_S1    U1_N427964 0 U1_N427858 0 CONTROL_U1_S1 
D_U1_D3         U1_N427858 U1_N14507001 DD 
X_U1_S2    U1_N427944 0 U1_N427908 U1_N427858 CONTROL_U1_S2 
X_U1_U1         ON U1_N00239 U1_N00271 U1_ON_INT1 COMPHYS_BASIC_GEN PARAMS:
+  VDD=1 VSS=0 VTHRESH=0.5
X_U1_U46         N00157 U1_ON_INT1 U1_N427964 NOR2_BASIC_GEN PARAMS: VDD=1
+  VSS=0 VTHRESH=500E-3
G_U1_ABM2I4         U1_N14507001 U1_N427858 VALUE { IF (V(U1_ON_INT1) > 0.5,
+  (-30.77 * V(VIN) + 130.77) * 1u, 0)    }
V_U1_V5         U1_N14507001 0 2
V_U1_V1         U1_N00239 0 0.9
X_U1_U43         U1_N427858 N00157 BUF_BASIC_GEN PARAMS: VDD=1 VSS=0
+  VTHRESH=0.5
V_U1_V2         U1_N00271 0 0.3
C_U1_C1         0 U1_N427858  1n  
G_U1_ABM2I2         U1_N427858 0 VALUE { IF (V(U1_ON_INT1) < 0.5, (15.4 *
+  V(VIN) + 59.6) * 1u, 0)    }
V_U1_V4         U1_N427908 0 1
X_U2_S1    N00157 0 VOUT U2_N14501700 DRIVER_U2_S1 
E_U2_ABM1         U2_N14516096 0 VALUE { V(VIN)     }
X_U2_S2    N00157 0 U2_N14516096 U2_VGATE DRIVER_U2_S2 
M_U2_M2         VOUT U2_VGATE VIN VIN PMOS01           
G_U2_ABM2I4         U2_VGATE 0 VALUE { IF ( V(N00157) > 0.5 ,  
+ (10.365 * V(VIN) - 8.315) * 1u , 0)   }
D_U2_D4         VOUT VIN DD 
G_U2_G1         U2_N14501700 GND TABLE { V(VIN, 0) } 
+ ( (0,0)(0.99,0)(1,0.025u)(2.5,0.1u)(3, 0.125u)(3.6, 0.16u) )
C_U2_C4         VOUT U2_VGATE  1n  
D_U2_D6         U2_VGATE U2_N14516096 DD 
D_U2_D5         0 U2_VGATE DD 
.ENDS TPS22908
*$
.subckt CONTROL_U1_S1 1 2 3 4  
S_U1_S1         3 4 1 2 _U1_S1
RS_U1_S1         1 2 1G
.MODEL         _U1_S1 VSWITCH Roff=100e6 Ron=1m Voff=0.2 Von=0.8
.ends CONTROL_U1_S1
*$
.subckt CONTROL_U1_S2 1 2 3 4  
S_U1_S2         3 4 1 2 _U1_S2
RS_U1_S2         1 2 1G
.MODEL         _U1_S2 VSWITCH Roff=100e6 Ron=1m Voff=0.2 Von=0.8
.ends CONTROL_U1_S2
*$
.subckt DRIVER_U2_S1 1 2 3 4  
S_U2_S1         3 4 1 2 _U2_S1
RS_U2_S1         1 2 1G
.MODEL         _U2_S1 VSWITCH Roff=10e6 Ron=80 Voff=0.8 Von=0.2
.ends DRIVER_U2_S1
*$
.subckt DRIVER_U2_S2 1 2 3 4  
S_U2_S2         3 4 1 2 _U2_S2
RS_U2_S2         1 2 1G
.MODEL         _U2_S2 VSWITCH Roff=1e9 Ron=1m Voff=0.8 Von=0.2
.ends DRIVER_U2_S2
*$
.SUBCKT COMPHYS_BASIC_GEN INP INM HYS OUT PARAMS: VDD=1 VSS=0 VTHRESH=0.5	
EIN INP1 INM1 INP INM 1 
EHYS INP1 INP2 VALUE { IF( V(1) > {VTHRESH},-V(HYS),0) }
EOUT OUT 0 VALUE { IF( V(INP2)>V(INM1), {VDD} ,{VSS}) }
R1 OUT 1 1
C1 1 0 5n
RINP1 INP1 0 1K
.ENDS COMPHYS_BASIC_GEN
*$
.MODEL DD D( IS=1F N=0.01 TT = 10p )
*$
.model NMOS01 NMOS
+ VTO     = 1u
+ KP      = 500k
+ LAMBDA  = 0.001
*$
.model PMOS01 PMOS
+ VTO     = -0.47
+ KP      = 15
+ LAMBDA  = 0.001
*$
.SUBCKT AND2_BASIC_GEN A B Y PARAMS: VDD=1 VSS=0 VTHRESH=0.5 
E_ABMGATE    YINT 0 VALUE {{IF(V(A) > {VTHRESH}  &  
+ V(B) > {VTHRESH},{VDD},{VSS})}}
RINT YINT Y 1
CINT Y 0 1n
.ENDS AND2_BASIC_GEN
*$
.SUBCKT INV_BASIC_GEN A  Y PARAMS: VDD=1 VSS=0 VTHRESH=0.5 
E_ABMGATE    YINT 0 VALUE {{IF(V(A) > {VTHRESH} , 
+ {VSS},{VDD})}}
RINT YINT Y 1
CINT Y 0 1n
.ENDS INV_BASIC_GEN
*$
.SUBCKT BUF_BASIC_GEN A  Y PARAMS: VDD=1 VSS=0 VTHRESH=0.5 
E_ABMGATE    YINT 0 VALUE {{IF(V(A) > {VTHRESH} , 
+ {VDD},{VSS})}}
RINT YINT Y 1
CINT Y 0 1n
.ENDS BUF_BASIC_GEN
*$
.SUBCKT NOR2_BASIC_GEN A B Y PARAMS: VDD=1 VSS=0 VTHRESH=0.5 
E_ABMGATE    YINT 0 VALUE {{IF(V(A) > {VTHRESH}  |  
+ V(B) > {VTHRESH},{VSS},{VDD})}}
RINT YINT Y 1
CINT Y 0 1n
.ENDS NOR2_BASIC_GEN
*$

