*$
* TPS2042B_TRANS
*****************************************************************************
* (C) Copyright 2011 Texas Instruments Incorporated. All rights reserved.
*****************************************************************************
** This model is designed as an aid for customers of Texas Instruments.
** TI and its licensors and suppliers make no warranties, either expressed
** or implied, with respect to this model, including the warranties of 
** merchantability or fitness for a particular purpose.  The model is
** provided solely on an "as is" basis.  The entire risk as to its quality
** and performance is with the customer
*****************************************************************************
*
** Released by: Analog eLab Design Center, Texas Instruments Inc.
* Part: TPS2042B
* Date: 12/19/2011
* Model Type: Transient
* Simulator: PSPICE
* Simulator Version: 16.2
* EVM Order Number: TPS2042BEVM-296
* EVM Users Guide: SLVU231 - January 2008
* Datasheet: SLVS514L - June 2010 - Revised June 2011
*
* Model Version: Final 1.00
*
*****************************************************************************
*
* Updates:
*
* Final 1.00
* Release to Web.
*
*****************************************************************************
.subckt TPS2042B_TRANS GND IN EN1 EN2 OC1_B OUT1 OUT2 OC2_B PWPD
D_U2_D11         0 U2_GATE D_D1 
X_U2_U654         U2_N01449 U2_N01843 INV_BASIC_GEN PARAMS: VDD=1 VSS=0
+  VTHRESH=500E-3
X_U2_U825         U2_TOFF U2_N01243 U2_NEG AND2_BASIC_GEN PARAMS: VDD=1 VSS=0
+  VTHRESH=500E-3
R_U2_R4         IN U2_N02219  3m  
X_U2_U655         U2_N02219 U2_GATE U2_N01193 NMOSIDEAL_PS PARAMS: K=2.8 VTH=1
R_U2_R10         OUT1 0  10e6  
X_U2_U44         POWEROK1 U2_N01243 INV_BASIC_GEN PARAMS: VDD=1 VSS=0
+  VTHRESH=500E-3
X_U2_U647         ISENSE1 0 IN U2_N01189 VCVSCLIP_PS PARAMS: GAIN=200 VOMAX=10
+  VOMIN=-5
X_U2_U648         U2_N02119 0 ISENSE1 ILIM1 VCVSCLIP_PS PARAMS: GAIN=1 VOMAX=20
+  VOMIN=0
R_U2_R9         U2_N01189 U2_N01351  2  
D_U2_D9         U2_N02267 OUT1 D_D1 
D_U2_D10         U2_GATE U2_N01853 D_D1 
C_U2_C5         U2_TOFF 0  1u  
C_U2_C4         0 U2_GATE  15.6p IC=0 
V_U2_V2         U2_N01853 0 12Vdc
V_U2_V1         0 U2_N02267 0.7Vdc
R_U2_R8         POWEROK1 U2_TOFF  1.14k  
X_U2_U6         U2_TON U2_TOFF U2_NEG U2_N01449 MUX2_BASIC_GEN PARAMS: VDD=1
+  VSS=0 VTHRESH=0.5
X_U2_U651         U2_GATE 0 POWEROK1 0 VCCS_CLIP_PS PARAMS: GM=-1m IOMAX=0
+  IOMIN=-125n
R_U2_R5         U2_N01193 OUT1  3m  
G_U2_ABMII1         U2_GATE 0 VALUE { LIMIT((2u)*V(U2_N02119),0,1m)    }
C_U2_C3         U2_TON 0  1u  
C_U2_C6         0 OUT1  1f IC=0 
R_U2_R6         IN U2_N01189  5.95  
X_U2_U656         U2_N01351 U2_GATE U2_N01193 NMOSIDEAL_PS PARAMS: K=.00838
+  VTH=1
R_U2_R7         POWEROK1 U2_TON  900  
X_U2_U650         U2_GATE 0 U2_N01843 0 VCCS_CLIP_PS PARAMS: GM=1m IOMAX=340n
+  IOMIN=0
X_U1_U6         U1_N16723494 U1_N16723438 U1_N16723550 ENOK1 MUX2_BASIC_GEN
+  PARAMS: VDD=1 VSS=0 VTHRESH=0.5
X_U1_U49         IN U1_N16722404 U1_N16723428 U1_VCCOK COMPHYS_BASIC_GEN
+  PARAMS: VDD=1 VSS=0 VTHRESH=0.5
V_U1_V9         U1_N16722324 0 1.45Vdc
X_U1_U22         U1_COMP_OUT POWEROK1 U1_ILIM_DET AND2_BASIC_GEN PARAMS: VDD=1
+  VSS=0 VTHRESH=500E-3
V_U1_V15         U1_N16723550 0 {EN_P}
X_U1_U27         U1_VCCOK ENOK1 POWEROK1 AND2_BASIC_GEN PARAMS: VDD=1 VSS=0
+  VTHRESH=500E-3
X_U1_S3    U1_N16723766 0 OC1_B 0 HK_U1_S3 
X_U1_U48         EN1 U1_N16722324 U1_N16723572 U1_N16723438 COMPHYS_BASIC_GEN
+  PARAMS: VDD=1 VSS=0 VTHRESH=0.5
X_U1_U50         ISENSE1 U1_N16723690 U1_COMP_OUT COMP_BASIC_GEN PARAMS: VDD=1
+  VSS=0 VTHRESH=0.5
C_U1_C3         U1_8MS 0  1u  
C_U1_C151         0 U1_N16722358  1n  
X_U1_U37         U1_POS U1_NEG U1_CHANGE OR2_BASIC_GEN PARAMS: VDD=1 VSS=0
+  VTHRESH=500E-3
X_U1_S4    U1_SET0 0 U1_8MS 0 HK_U1_S4 
R_U1_R260         U1_ILIM_DET U1_N16722358  14.4k  
X_U1_U823         U1_ILIM_DET U1_N16723356 U1_POS AND2_BASIC_GEN PARAMS: VDD=1
+  VSS=0 VTHRESH=500E-3
R_U1_R5         U1_ILIM_DET U1_8MS  11.66k  
X_U1_S5    U1_SET1 0 U1_N16723146 U1_8MS HK_U1_S5 
X_U1_U825         U1_N16722866 U1_N16722358 U1_NEG AND2_BASIC_GEN PARAMS: VDD=1
+  VSS=0 VTHRESH=500E-3
V_U1_V11         U1_N16722404 0 2.3Vdc
X_U1_U25         U1_8MS U1_BUF_OUT BUF_BASIC_GEN PARAMS: VDD=1 VSS=0
+  VTHRESH=0.5
X_U1_U44         U1_ILIM_DET U1_N16722866 INV_BASIC_GEN PARAMS: VDD=1 VSS=0
+  VTHRESH=500E-3
C_U1_C150         0 U1_N16723356  1n  
X_U1_U43         U1_BUF_OUT U1_N16722674 INV_BASIC_GEN PARAMS: VDD=1 VSS=0
+  VTHRESH=500E-3
V_U1_V1         U1_N16723146 0 1Vdc
R_U1_R259         U1_N16722866 U1_N16723356  14.4k  
X_U1_U28         POWEROK1 U1_BUF_OUT U1_N16723766 AND2_BASIC_GEN PARAMS: VDD=1
+  VSS=0 VTHRESH=500E-3
V_U1_V13         U1_N16723428 0 75mVdc
V_U1_V14         U1_N16723572 0 0mVdc
X_U1_U21         U1_CHANGE U1_BUF_OUT U1_SET1 AND2_BASIC_GEN PARAMS: VDD=1
+  VSS=0 VTHRESH=500E-3
X_U1_U66         U1_N16723438 U1_N16723494 INV_BASIC_GEN PARAMS: VDD=1 VSS=0
+  VTHRESH=500E-3
X_U1_U24         U1_N16722674 U1_CHANGE U1_SET0 AND2_BASIC_GEN PARAMS: VDD=1
+  VSS=0 VTHRESH=500E-3
E_U1_ABM1         U1_N16723690 0 VALUE { V(ILIM1) * 0.98    }
X_U5_U3         ENOK1 ENOK2 U5_N16744578 OR2_BASIC_GEN PARAMS: VDD=1 VSS=0
+  VTHRESH=500E-3
G_U5_ABMII1         IN GND VALUE { IF(V(U5_N16744578) > 0.5, 50u, 0.5u)    }
D_U4_D11         0 U4_GATE D_D1 
X_U4_U654         U4_N01449 U4_N01843 INV_BASIC_GEN PARAMS: VDD=1 VSS=0
+  VTHRESH=500E-3
X_U4_U825         U4_TOFF U4_N01243 U4_NEG AND2_BASIC_GEN PARAMS: VDD=1 VSS=0
+  VTHRESH=500E-3
R_U4_R4         IN U4_N02219  3m  
X_U4_U655         U4_N02219 U4_GATE U4_N01193 NMOSIDEAL_PS PARAMS: K=2.8 VTH=1
R_U4_R10         OUT2 0  10e6  
X_U4_U44         POWEROK2 U4_N01243 INV_BASIC_GEN PARAMS: VDD=1 VSS=0
+  VTHRESH=500E-3
X_U4_U647         ISENSE2 0 IN U4_N01189 VCVSCLIP_PS PARAMS: GAIN=200 VOMAX=10
+  VOMIN=-5
X_U4_U648         U4_N02119 0 ISENSE2 ILIM2 VCVSCLIP_PS PARAMS: GAIN=1 VOMAX=20
+  VOMIN=0
R_U4_R9         U4_N01189 U4_N01351  2  
D_U4_D9         U4_N02267 OUT2 D_D1 
D_U4_D10         U4_GATE U4_N01853 D_D1 
C_U4_C5         U4_TOFF 0  1u  
C_U4_C4         0 U4_GATE  15.6p IC=0 
V_U4_V2         U4_N01853 0 12Vdc
V_U4_V1         0 U4_N02267 0.7Vdc
R_U4_R8         POWEROK2 U4_TOFF  1.14k  
X_U4_U6         U4_TON U4_TOFF U4_NEG U4_N01449 MUX2_BASIC_GEN PARAMS: VDD=1
+  VSS=0 VTHRESH=0.5
X_U4_U651         U4_GATE 0 POWEROK2 0 VCCS_CLIP_PS PARAMS: GM=-1m IOMAX=0
+  IOMIN=-125n
R_U4_R5         U4_N01193 OUT2  3m  
G_U4_ABMII1         U4_GATE 0 VALUE { LIMIT((2u)*V(U4_N02119),0,1m)    }
C_U4_C3         U4_TON 0  1u  
C_U4_C6         0 OUT2  1f IC=0 
R_U4_R6         IN U4_N01189  5.95  
X_U4_U656         U4_N01351 U4_GATE U4_N01193 NMOSIDEAL_PS PARAMS: K=.00838
+  VTH=1
R_U4_R7         POWEROK2 U4_TON  900  
X_U4_U650         U4_GATE 0 U4_N01843 0 VCCS_CLIP_PS PARAMS: GM=1m IOMAX=340n
+  IOMIN=0
X_U3_U6         U3_N16723494 U3_N16723438 U3_N16723550 ENOK2 MUX2_BASIC_GEN
+  PARAMS: VDD=1 VSS=0 VTHRESH=0.5
X_U3_U49         IN U3_N16722404 U3_N16723428 U3_VCCOK COMPHYS_BASIC_GEN
+  PARAMS: VDD=1 VSS=0 VTHRESH=0.5
V_U3_V9         U3_N16722324 0 1.45Vdc
X_U3_U22         U3_COMP_OUT POWEROK2 U3_ILIM_DET AND2_BASIC_GEN PARAMS: VDD=1
+  VSS=0 VTHRESH=500E-3
V_U3_V15         U3_N16723550 0 {EN_P}
X_U3_U27         U3_VCCOK ENOK2 POWEROK2 AND2_BASIC_GEN PARAMS: VDD=1 VSS=0
+  VTHRESH=500E-3
X_U3_S3    U3_N16723766 0 OC2_B 0 HK_U3_S3 
X_U3_U48         EN2 U3_N16722324 U3_N16723572 U3_N16723438 COMPHYS_BASIC_GEN
+  PARAMS: VDD=1 VSS=0 VTHRESH=0.5
X_U3_U50         ISENSE2 U3_N16723690 U3_COMP_OUT COMP_BASIC_GEN PARAMS: VDD=1
+  VSS=0 VTHRESH=0.5
C_U3_C3         U3_8MS 0  1u  
C_U3_C151         0 U3_N16722358  1n  
X_U3_U37         U3_POS U3_NEG U3_CHANGE OR2_BASIC_GEN PARAMS: VDD=1 VSS=0
+  VTHRESH=500E-3
X_U3_S4    U3_SET0 0 U3_8MS 0 HK_U3_S4 
R_U3_R260         U3_ILIM_DET U3_N16722358  14.4k  
X_U3_U823         U3_ILIM_DET U3_N16723356 U3_POS AND2_BASIC_GEN PARAMS: VDD=1
+  VSS=0 VTHRESH=500E-3
R_U3_R5         U3_ILIM_DET U3_8MS  11.66k  
X_U3_S5    U3_SET1 0 U3_N16723146 U3_8MS HK_U3_S5 
X_U3_U825         U3_N16722866 U3_N16722358 U3_NEG AND2_BASIC_GEN PARAMS: VDD=1
+  VSS=0 VTHRESH=500E-3
V_U3_V11         U3_N16722404 0 2.3Vdc
X_U3_U25         U3_8MS U3_BUF_OUT BUF_BASIC_GEN PARAMS: VDD=1 VSS=0
+  VTHRESH=0.5
X_U3_U44         U3_ILIM_DET U3_N16722866 INV_BASIC_GEN PARAMS: VDD=1 VSS=0
+  VTHRESH=500E-3
C_U3_C150         0 U3_N16723356  1n  
X_U3_U43         U3_BUF_OUT U3_N16722674 INV_BASIC_GEN PARAMS: VDD=1 VSS=0
+  VTHRESH=500E-3
V_U3_V1         U3_N16723146 0 1Vdc
R_U3_R259         U3_N16722866 U3_N16723356  14.4k  
X_U3_U28         POWEROK2 U3_BUF_OUT U3_N16723766 AND2_BASIC_GEN PARAMS: VDD=1
+  VSS=0 VTHRESH=500E-3
V_U3_V13         U3_N16723428 0 75mVdc
V_U3_V14         U3_N16723572 0 0mVdc
X_U3_U21         U3_CHANGE U3_BUF_OUT U3_SET1 AND2_BASIC_GEN PARAMS: VDD=1
+  VSS=0 VTHRESH=500E-3
X_U3_U66         U3_N16723438 U3_N16723494 INV_BASIC_GEN PARAMS: VDD=1 VSS=0
+  VTHRESH=500E-3
X_U3_U24         U3_N16722674 U3_CHANGE U3_SET0 AND2_BASIC_GEN PARAMS: VDD=1
+  VSS=0 VTHRESH=500E-3
E_U3_ABM1         U3_N16723690 0 VALUE { V(ILIM2) * 0.98    }
V_VILIM1         ILIM2 0 3.6Vdc
R_R4         0 PWPD  1k  
V_VILIM         ILIM1 0 3.6Vdc
.param EN_P=0
.ends TPS2042B_TRANS
*$
.subckt HK_U1_S3 1 2 3 4  
S_U1_S3         3 4 1 2 _U1_S3
RS_U1_S3         1 2 1G
.MODEL         _U1_S3 VSWITCH Roff=1G Ron=60 Voff=0.25V Von=0.75V
.ends HK_U1_S3
*$
.subckt HK_U1_S4 1 2 3 4  
S_U1_S4         3 4 1 2 _U1_S4
RS_U1_S4         1 2 1G
.MODEL         _U1_S4 VSWITCH Roff=1G Ron=1.0 Voff=0.25V Von=0.75V
.ends HK_U1_S4
*$
.subckt HK_U1_S5 1 2 3 4  
S_U1_S5         3 4 1 2 _U1_S5
RS_U1_S5         1 2 1G
.MODEL         _U1_S5 VSWITCH Roff=1G Ron=1.0 Voff=0.25V Von=0.75V
.ends HK_U1_S5
*$
.subckt HK_U3_S3 1 2 3 4  
S_U3_S3         3 4 1 2 _U3_S3
RS_U3_S3         1 2 1G
.MODEL         _U3_S3 VSWITCH Roff=1G Ron=60 Voff=0.25V Von=0.75V
.ends HK_U3_S3
*$
.subckt HK_U3_S4 1 2 3 4  
S_U3_S4         3 4 1 2 _U3_S4
RS_U3_S4         1 2 1G
.MODEL         _U3_S4 VSWITCH Roff=1G Ron=1.0 Voff=0.25V Von=0.75V
.ends HK_U3_S4
*$
.subckt HK_U3_S5 1 2 3 4  
S_U3_S5         3 4 1 2 _U3_S5
RS_U3_S5         1 2 1G
.MODEL         _U3_S5 VSWITCH Roff=1G Ron=1.0 Voff=0.25V Von=0.75V
.ends HK_U3_S5
*$
.model D_D1 d
+ is=1e-015
+ tt=1e-011
+ rs=0.05
+ n=0.1
*$
.SUBCKT CESR IN OUT
+ PARAMs:  C=100u ESR=0.01 X=2 IC=0
C	IN 1  {C*X} IC={IC}
RESR	1 OUT {ESR/X}
.ENDS CESR
*$
.SUBCKT NMOSIDEAL_PS D G S PARAMS: k=1 vth=0
RDDUM D 0 1e11
RSDUM S 0 1e11
RGDUM G 0 1e11
EON Yp 0 VALUE={IF(V(G,S) > {vth}, 1, 0)}
GOUT D S VALUE={IF(V(D,S) >= (V(G,S)-{vth}), V(Yp)*({k}/2)*(V(G,S)-{vth})**2, V(Yp)*({k})*(V(G,S)-{vth}-V(D,S)/2)*V(D,S))}
.ENDS NMOSIDEAL_PS
*$
.SUBCKT NSW_PS D G S PARAMS: RONval=10k VTHval=0.7 VCHARval=0.01 CGval=0.01pF CDval=0.01pF CSval=0.01pf
RDDUM D 0 1e11
RSDUM S 0 1e11
RGDUM G 0 1e11
CG G D {CGval}
CD D S {CDval}
CS G S {CSval}
***EEXP F1 0 VALUE={LIMIT(((V(G,S)-VTHval)/VCHARval),-80,80)} 
Etest test 0 VALUE={IF(V(D) > V(S), V(G,S), V(G,D))}
GOUT D S VALUE={V(D,S)/(RONval*(1+EXP(-LIMIT(((V(test)-VTHval)/VCHARval),-80,80))))}
.ENDS NSW_PS
*$
.SUBCKT PSW_PS D G S PARAMS: RONval=10k VTHval=0.7 VCHARval=0.01 CGval=0.01pF CDval=0.01pF 
RDDUM D 0 1e11
RSDUM S 0 1e11
RGDUM G 0 1e11
CG G D {CGval}
CD D S {CDval}
***EEXP F1 0 VALUE={LIMIT(((V(S,G)-VTHval)/VCHARval),-80,80)} 
Etest test 0 VALUE={IF(V(S) > V(D), V(S,G), V(D,G))}
GOUT S D VALUE={V(S,D)/(RONval*(1+EXP(-LIMIT(((V(test)-VTHval)/VCHARval),-80,80))))}
.ENDS PSW_PS
*$
.SUBCKT VCCS_CLIP_PS IOUT_P IOUT_N VIN_P VIN_N PARAMS: GM=1 IOMAX=1 IOMIN=-1
RCTRLP VIN_P 0 1e11
RCTRLN VIN_N 0 1e11
GOUT IOUT_P IOUT_N VALUE={LIMIT({GM}*V(VIN_P,VIN_N), {IOMIN},{IOMAX})}
ROUTP IOUT_P 0 1e11
ROUTN IOUT_N 0 1e11
.ends VCCS_CLIP_PS
*$
.SUBCKT VCVSCLIP_PS YP YN POS NEG PARAMS: gain=1 vomax=1 vomin=-1
RP POS 0 1e11
CP POS 0 0.01pF
RN NEG 0 1e11
CN NEG 0 0.01pF
ROUTN YN 0 1e11
COUTN YN 0 0.01pF
***** boolean ************
EVCLP YP YN VALUE={LIMIT((V(POS)-V(NEG))*{gain},{vomin},{vomax})}
**************************
RO YP 0 1e11
.ENDS VCVSCLIP_PS
*$
.SUBCKT SWITCH_PS A SWD SWC PARAMS: vth=500e-3 ron=1e3 roff=1e6 tdelay=1e-9 trise=1e-9 tfall=1e-9 initval=0
*
VS VSUP 0 DC 1
***** boolean ************
EBUF1 Ypp 0 VALUE={IF(V(A) > ({vth}), {1-initval}, {initval})}
ROUTpp Ypp 0 1e11
***** add delay lines ****
XNSW1 OUTp Ypp 0 NSW_PS PARAMS: RONval={(tdelay+1e-15)/(1e-12*0.693)} VTHval=0.5
XPSW1 OUTp Ypp VSUP PSW_PS PARAMS: RONval={(tdelay+1e-15)/(1e-12*0.693)} VTHval=0.5
CDEL1 OUTp 0 1pF
ETHRESH Yp 0 VALUE={IF(V(OUTp) > 0.5, 1, 0)}
ROUTp Yp 0 1e11
** Add rise and fall *****
XNSW2 OUTr Yp 0 NSW_PS PARAMS: RONval={(trise+1e-15)/(1e-12*2.3)} VTHval=0.5
XPSW2 OUTr Yp VSUP PSW_PS PARAMS: RONval={(tfall+1e-15)/(1e-12*2.3)} VTHval=0.5
CDEL2 OUTr 0 1pF
***Switch ************
EOUT VG1 SWC VALUE={V(OUTr)}
XNSW3 SWD VG1 SWC NSW_PS PARAMS: RONval={ron} VTHval=0.5
.ENDS SWITCH_PS
*$
.SUBCKT COMP_BASIC_GEN INP INM Y PARAMS: VDD=1 VSS=0 VTHRESH=0.5	
E_ABM Yint 0 VALUE {IF (V(INP) > 
+ V(INM), {VDD},{VSS})}
R1 Yint Y 1
C1 Y 0 1n
.ENDS COMP_BASIC_GEN
*$
.SUBCKT COMPHYS_BASIC_GEN INP INM HYS OUT PARAMS: VDD=1 VSS=0 VTHRESH=0.5	
EIN INP1 INM1 INP INM 1 
EHYS INP1 INP2 VALUE { IF( V(1) > {VTHRESH},-V(HYS),0) }
EOUT OUT 0 VALUE { IF( V(INP2)>V(INM1), {VDD} ,{VSS}) }
R1 OUT 1 1
C1 1 0 5n
RINP1 INP1 0 1K
.ENDS COMPHYS_BASIC_GEN
*$
.SUBCKT AND2_BASIC_GEN A B Y PARAMS: VDD=1 VSS=0 VTHRESH=0.5 
E_ABMGATE    YINT 0 VALUE {{IF(V(A) > {VTHRESH}  &  
+ V(B) > {VTHRESH},{VDD},{VSS})}}
RINT YINT Y 1
CINT Y 0 1n
.ENDS AND2_BASIC_GEN
*$
.SUBCKT OR2_BASIC_GEN A B Y PARAMS: VDD=1 VSS=0 VTHRESH=0.5 
E_ABMGATE    YINT 0 VALUE {{IF(V(A) > {VTHRESH}  |  
+ V(B) > {VTHRESH},{VDD},{VSS})}}
RINT YINT Y 1
CINT Y 0 1n
.ENDS OR2_BASIC_GEN
*$
.SUBCKT INV_BASIC_GEN A  Y PARAMS: VDD=1 VSS=0 VTHRESH=0.5 
E_ABMGATE    YINT 0 VALUE {{IF(V(A) > {VTHRESH} , 
+ {VSS},{VDD})}}
RINT YINT Y 1
CINT Y 0 1n
.ENDS INV_BASIC_GEN
*$
.SUBCKT INV_DELAY_BASIC_GEN A  Y PARAMS: VDD=1 VSS=0 VTHRESH=0.5 DELAY = 10n 
E_ABMGATE1    YINT1 0 VALUE {{IF(V(A) > {VTHRESH} , 
+ {VDD},{VSS})}}
RINT YINT1 YINT2 1
CINT YINT2 0 {DELAY*1.3}
E_ABMGATE2    YINT3 0 VALUE {{IF(V(YINT2) > {VTHRESH} , 
+ {VSS},{VDD})}}
RINT2 YINT3 Y 1
CINT2 Y 0 1n
.ENDS INV_DELAY_BASIC_GEN
*$
.SUBCKT XNOR2_BASIC_GEN A B Y PARAMS: VDD=1 VSS=0 VTHRESH=0.5 
E_ABMGATE  YINT 0 VALUE {{IF(V(A) > {VTHRESH}  ^  
+ V(B) > {VTHRESH},{VSS},{VDD})}}
RINT YINT Y 1
CINT Y 0 1n
.ENDS XNOR2_BASIC_GEN
*$
.SUBCKT MUX2_BASIC_GEN A B S Y PARAMS: VDD=1 VSS=0 VTHRESH=0.5 
E_ABMGATE  YINT 0 VALUE {{IF(V(S) > {VTHRESH},  
+ V(B),V(A))}}
RINT YINT Y 1
CINT Y 0 1n
.ENDS MUX2_BASIC_GEN
*$
.SUBCKT BUF_BASIC_GEN A  Y PARAMS: VDD=1 VSS=0 VTHRESH=0.5 
E_ABMGATE    YINT 0 VALUE {{IF(V(A) > {VTHRESH} , 
+ {VDD},{VSS})}}
RINT YINT Y 1
CINT Y 0 1n
.ENDS BUF_BASIC_GEN
*$
