*$
* TPS2064C-2
*****************************************************************************
* (C) Copyright 2013 Texas Instruments Incorporated. All rights reserved.                                            
*****************************************************************************
** This model is designed as an aid for customers of Texas Instruments.
** TI and its licensors and suppliers make no warranties, either expressed
** or implied, with respect to this model, including the warranties of 
** merchantability or fitness for a particular purpose.  The model is
** provided solely on an "as is" basis.  The entire risk as to its quality
** and performance is with the customer
*****************************************************************************
*
* This model is subject to change without notice. Texas Instruments
* Incorporated is not responsible for updating this model.
*
*****************************************************************************
*
* Released by: WEBENCH Design Center, Texas Instruments Inc.
* Part: TPS2064C-2
* Date: 03JAN2013
* Model Type: Transient  
* Simulator: PSPICE
* Simulator Version: 16.2.0.p001
* EVM Order Number: 
* EVM Users Guide: 
* Datasheet: SLVSAX6F OCTOBER 2011 REVISED NOVEMBER 2012
*
* Model Version: Final 1.00
*
*****************************************************************************
*
* Updates:
*
* Final 1.00
* Release to Web.
*
*****************************************************************************

* source TPS2064C-2
.SUBCKT TPS2064C-2 EN1 EN2 FLT_B1 FLT_B2 GND IN OUT1 OUT2 PWPD  
.PARAM EN_P = 1
G_U5_ABMII1         IN GND VALUE { IF(V(U5_N16699304) > 0.5, 40u, 0u)    }
G_U5_ABMII2         IN GND VALUE { IF(V(U5_N16699310) > 0.5, 60u, 0.01u)    }
X_U5_U2         ENOK1 ENOK2 U5_N16699310 OR2_BASIC_GEN PARAMS: VDD=1 VSS=0
+  VTHRESH=500E-3
X_U5_U1         ENOK1 ENOK2 U5_N16699304 AND2_BASIC_GEN PARAMS: VDD=1 VSS=0
+  VTHRESH=500E-3
X_U3_S5    U3_SET1 GND U3_N16713149 U3_10MS HK_U3_S5 
V_U3_V11         U3_N16712381 GND 3.75Vdc
V_U3_V16         U3_N16726120 GND {EN_P}
X_U3_U825         U3_N16712857 U3_N16712335 U3_NEG AND2_BASIC_GEN PARAMS: VDD=1
+  VSS=0 VTHRESH=500E-3
X_U3_U25         U3_10MS U3_BUF_OUT BUF_BASIC_GEN PARAMS: VDD=1 VSS=0
+  VTHRESH=0.5
X_U3_U43         U3_BUF_OUT U3_N16712661 INV_BASIC_GEN PARAMS: VDD=1 VSS=0
+  VTHRESH=500E-3
X_U3_U44         U3_ILIM_DET U3_N16712857 INV_BASIC_GEN PARAMS: VDD=1 VSS=0
+  VTHRESH=500E-3
V_U3_V1         U3_N16713149 GND 1Vdc
X_U3_U28         POWEROK2 U3_BUF_OUT U3_N16713727 AND2_BASIC_GEN PARAMS: VDD=1
+  VSS=0 VTHRESH=500E-3
V_U3_V13         U3_N16713427 GND 140mVdc
V_U3_V14         U3_N16713449 GND 140mVdc
X_U3_U21         U3_CHANGE U3_BUF_OUT U3_SET1 AND2_BASIC_GEN PARAMS: VDD=1
+  VSS=0 VTHRESH=500E-3
X_U3_U24         U3_N16712661 U3_CHANGE U3_SET0 AND2_BASIC_GEN PARAMS: VDD=1
+  VSS=0 VTHRESH=500E-3
E_U3_ABM1         U3_N16713649 0 VALUE { V(ILIM) * 0.98    }
X_U3_U49         IN U3_N16712381 U3_N16713427 U3_VCCOK COMPHYS_BASIC_GEN
+  PARAMS: VDD=1 VSS=0 VTHRESH=0.5
V_U3_V9         U3_N16712301 GND 1.45Vdc
X_U3_U22         U3_COMP_OUT POWEROK2 U3_ILIM_DET AND2_BASIC_GEN PARAMS: VDD=1
+  VSS=0 VTHRESH=500E-3
X_U3_U27         U3_VCCOK ENOK2 POWEROK2 AND2_BASIC_GEN PARAMS: VDD=1 VSS=0
+  VTHRESH=500E-3
X_U3_S3    U3_N16713727 GND FLT_B2 GND HK_U3_S3 
X_U3_U48         EN2 U3_N16712301 U3_N16713449 U3_N16726698 COMPHYS_BASIC_GEN
+  PARAMS: VDD=1 VSS=0 VTHRESH=0.5
X_U3_U50         ISENSE2 U3_N16713649 U3_COMP_OUT COMP_BASIC_GEN PARAMS: VDD=1
+  VSS=0 VTHRESH=0.5
C_U3_C151         GND U3_N16712335  1n  
C_U3_C3         U3_10MS GND  1u  
R_U3_R260         U3_ILIM_DET U3_N16712335  14.4k  
X_U3_U37         U3_POS U3_NEG U3_CHANGE OR2_BASIC_GEN PARAMS: VDD=1 VSS=0
+  VTHRESH=500E-3
C_U3_C150         GND U3_N16713355  1n  
X_U3_S4    U3_SET0 GND U3_10MS GND HK_U3_S4 
R_U3_R259         U3_N16712857 U3_N16713355  14.4k  
X_U3_U826         U3_N16726698 U3_N16726120 ENOK2 XNOR2_BASIC_GEN PARAMS: VDD=1
+  VSS=0 VTHRESH=500E-3
X_U3_U823         U3_ILIM_DET U3_N16713355 U3_POS AND2_BASIC_GEN PARAMS: VDD=1
+  VSS=0 VTHRESH=500E-3
R_U3_R5         U3_ILIM_DET U3_10MS  14.43k  
X_U4_U825         U4_TOFF U4_N01228 U4_NEG AND2_BASIC_GEN PARAMS: VDD=1 VSS=0
+  VTHRESH=500E-3
R_U4_R8         POWEROK2 U4_TOFF  2048  
V_U4_V2         U4_N01726 0 12Vdc
R_U4_R5         U4_N02374 OUT2  5m  
G_U4_ABMII1         U4_GATE 0 VALUE {
+  LIMIT((0.25u)*PWRS(V(U4_N01974),2)+(20u)*V(U4_N01974),0,1m)    }
C_U4_C7         GND OUT2  10p IC=0 
D_U4_D12         GND OUT2 D_D1 
X_U4_U44         POWEROK2 U4_N01228 INV_BASIC_GEN PARAMS: VDD=1 VSS=0
+  VTHRESH=500E-3
X_U4_U651         U4_GATE 0 POWEROK2 0 VCCS_CLIP_PS PARAMS: GM=-1m IOMAX=0
+  IOMIN=-125n
C_U4_C3         U4_TON 0  1u  
R_U4_R7         POWEROK2 U4_TON  1075  
X_U4_U650         U4_GATE 0 U4_N01716 0 VCCS_CLIP_PS PARAMS: GM=1m IOMAX=349n
+  IOMIN=0
C_U4_C4         0 U4_GATE  25p IC=0 
X_U4_U6         U4_TON U4_TOFF U4_NEG U4_N01374 MUX2_BASIC_GEN PARAMS: VDD=1
+  VSS=0 VTHRESH=0.5
X_U4_U654         U4_N01374 U4_N01716 INV_BASIC_GEN PARAMS: VDD=1 VSS=0
+  VTHRESH=500E-3
R_U4_R4         IN U4_N02012  5m  
D_U4_D9         U4_N02272 OUT2 D_D1 
X_U4_U655         U4_N02012 U4_GATE U4_N02374 NMOSIDEAL_PS PARAMS: K=2.75 VTH=1
X_U4_U647         ISENSE2 0 IN U4_N02012 VCVSCLIP_PS PARAMS: GAIN=200 VOMAX=10
+  VOMIN=-5
D_U4_D11         0 U4_GATE D_D1 
V_U4_V1         0 U4_N02272 0.7Vdc
C_U4_C5         U4_TOFF 0  1u  
X_U4_U648         U4_N01974 0 ISENSE2 ILIM VCVSCLIP_PS PARAMS: GAIN=1 VOMAX=20
+  VOMIN=0
D_U4_D10         U4_GATE U4_N01726 D_D1 
V_VILIM         ILIM 0 2.29Vdc
X_U2_U825         U2_TOFF U2_N01228 U2_NEG AND2_BASIC_GEN PARAMS: VDD=1 VSS=0
+  VTHRESH=500E-3
R_U2_R8         POWEROK1 U2_TOFF  2048  
V_U2_V2         U2_N01726 0 12Vdc
R_U2_R5         U2_N02374 OUT1  5m  
G_U2_ABMII1         U2_GATE 0 VALUE {
+  LIMIT((0.25u)*PWRS(V(U2_N01974),2)+(20u)*V(U2_N01974),0,1m)    }
C_U2_C7         GND OUT1  10p IC=0 
D_U2_D12         GND OUT1 D_D1 
X_U2_U44         POWEROK1 U2_N01228 INV_BASIC_GEN PARAMS: VDD=1 VSS=0
+  VTHRESH=500E-3
X_U2_U651         U2_GATE 0 POWEROK1 0 VCCS_CLIP_PS PARAMS: GM=-1m IOMAX=0
+  IOMIN=-125n
C_U2_C3         U2_TON 0  1u  
R_U2_R7         POWEROK1 U2_TON  1075  
X_U2_U650         U2_GATE 0 U2_N01716 0 VCCS_CLIP_PS PARAMS: GM=1m IOMAX=349n
+  IOMIN=0
C_U2_C4         0 U2_GATE  25p IC=0 
X_U2_U6         U2_TON U2_TOFF U2_NEG U2_N01374 MUX2_BASIC_GEN PARAMS: VDD=1
+  VSS=0 VTHRESH=0.5
X_U2_U654         U2_N01374 U2_N01716 INV_BASIC_GEN PARAMS: VDD=1 VSS=0
+  VTHRESH=500E-3
R_U2_R4         IN U2_N02012  5m  
D_U2_D9         U2_N02272 OUT1 D_D1 
X_U2_U655         U2_N02012 U2_GATE U2_N02374 NMOSIDEAL_PS PARAMS: K=2.75 VTH=1
X_U2_U647         ISENSE1 0 IN U2_N02012 VCVSCLIP_PS PARAMS: GAIN=200 VOMAX=10
+  VOMIN=-5
D_U2_D11         0 U2_GATE D_D1 
V_U2_V1         0 U2_N02272 0.7Vdc
C_U2_C5         U2_TOFF 0  1u  
X_U2_U648         U2_N01974 0 ISENSE1 ILIM VCVSCLIP_PS PARAMS: GAIN=1 VOMAX=20
+  VOMIN=0
D_U2_D10         U2_GATE U2_N01726 D_D1 
X_U1_S5    U1_SET1 GND U1_N16713149 U1_10MS HK_U1_S5 
V_U1_V11         U1_N16712381 GND 3.75Vdc
V_U1_V16         U1_N16726120 GND {EN_P}
X_U1_U825         U1_N16712857 U1_N16712335 U1_NEG AND2_BASIC_GEN PARAMS: VDD=1
+  VSS=0 VTHRESH=500E-3
X_U1_U25         U1_10MS U1_BUF_OUT BUF_BASIC_GEN PARAMS: VDD=1 VSS=0
+  VTHRESH=0.5
X_U1_U43         U1_BUF_OUT U1_N16712661 INV_BASIC_GEN PARAMS: VDD=1 VSS=0
+  VTHRESH=500E-3
X_U1_U44         U1_ILIM_DET U1_N16712857 INV_BASIC_GEN PARAMS: VDD=1 VSS=0
+  VTHRESH=500E-3
V_U1_V1         U1_N16713149 GND 1Vdc
X_U1_U28         POWEROK1 U1_BUF_OUT U1_N16713727 AND2_BASIC_GEN PARAMS: VDD=1
+  VSS=0 VTHRESH=500E-3
V_U1_V13         U1_N16713427 GND 140mVdc
V_U1_V14         U1_N16713449 GND 140mVdc
X_U1_U21         U1_CHANGE U1_BUF_OUT U1_SET1 AND2_BASIC_GEN PARAMS: VDD=1
+  VSS=0 VTHRESH=500E-3
X_U1_U24         U1_N16712661 U1_CHANGE U1_SET0 AND2_BASIC_GEN PARAMS: VDD=1
+  VSS=0 VTHRESH=500E-3
E_U1_ABM1         U1_N16713649 0 VALUE { V(ILIM) * 0.98    }
X_U1_U49         IN U1_N16712381 U1_N16713427 U1_VCCOK COMPHYS_BASIC_GEN
+  PARAMS: VDD=1 VSS=0 VTHRESH=0.5
V_U1_V9         U1_N16712301 GND 1.45Vdc
X_U1_U22         U1_COMP_OUT POWEROK1 U1_ILIM_DET AND2_BASIC_GEN PARAMS: VDD=1
+  VSS=0 VTHRESH=500E-3
X_U1_U27         U1_VCCOK ENOK1 POWEROK1 AND2_BASIC_GEN PARAMS: VDD=1 VSS=0
+  VTHRESH=500E-3
X_U1_S3    U1_N16713727 GND FLT_B1 GND HK_U1_S3 
X_U1_U48         EN1 U1_N16712301 U1_N16713449 U1_N16726698 COMPHYS_BASIC_GEN
+  PARAMS: VDD=1 VSS=0 VTHRESH=0.5
X_U1_U50         ISENSE1 U1_N16713649 U1_COMP_OUT COMP_BASIC_GEN PARAMS: VDD=1
+  VSS=0 VTHRESH=0.5
C_U1_C151         GND U1_N16712335  1n  
C_U1_C3         U1_10MS GND  1u  
R_U1_R260         U1_ILIM_DET U1_N16712335  14.4k  
X_U1_U37         U1_POS U1_NEG U1_CHANGE OR2_BASIC_GEN PARAMS: VDD=1 VSS=0
+  VTHRESH=500E-3
C_U1_C150         GND U1_N16713355  1n  
X_U1_S4    U1_SET0 GND U1_10MS GND HK_U1_S4 
R_U1_R259         U1_N16712857 U1_N16713355  14.4k  
X_U1_U826         U1_N16726698 U1_N16726120 ENOK1 XNOR2_BASIC_GEN PARAMS: VDD=1
+  VSS=0 VTHRESH=500E-3
X_U1_U823         U1_ILIM_DET U1_N16713355 U1_POS AND2_BASIC_GEN PARAMS: VDD=1
+  VSS=0 VTHRESH=500E-3
R_U1_R5         U1_ILIM_DET U1_10MS  14.43k  
.ENDS TPS2064C-2

.subckt HK_U3_S5 1 2 3 4  
S_U3_S5         3 4 1 2 _U3_S5
RS_U3_S5         1 2 1G
.MODEL         _U3_S5 VSWITCH Roff=1G Ron=1.0 Voff=0.25V Von=0.75V
.ends HK_U3_S5

.subckt HK_U3_S3 1 2 3 4  
S_U3_S3         3 4 1 2 _U3_S3
RS_U3_S3         1 2 1G
.MODEL         _U3_S3 VSWITCH Roff=1G Ron=60 Voff=0.25V Von=0.75V
.ends HK_U3_S3

.subckt HK_U3_S4 1 2 3 4  
S_U3_S4         3 4 1 2 _U3_S4
RS_U3_S4         1 2 1G
.MODEL         _U3_S4 VSWITCH Roff=1G Ron=1.0 Voff=0.25V Von=0.75V
.ends HK_U3_S4

.subckt HK_U1_S5 1 2 3 4  
S_U1_S5         3 4 1 2 _U1_S5
RS_U1_S5         1 2 1G
.MODEL         _U1_S5 VSWITCH Roff=1G Ron=1.0 Voff=0.25V Von=0.75V
.ends HK_U1_S5

.subckt HK_U1_S3 1 2 3 4  
S_U1_S3         3 4 1 2 _U1_S3
RS_U1_S3         1 2 1G
.MODEL         _U1_S3 VSWITCH Roff=1G Ron=60 Voff=0.25V Von=0.75V
.ends HK_U1_S3

.subckt HK_U1_S4 1 2 3 4  
S_U1_S4         3 4 1 2 _U1_S4
RS_U1_S4         1 2 1G
.MODEL         _U1_S4 VSWITCH Roff=1G Ron=1.0 Voff=0.25V Von=0.75V
.ends HK_U1_S4

.SUBCKT CESR IN OUT
+ PARAMs:  C=100u ESR=0.01 X=2 IC=0
C	IN 1  {C*X} IC={IC}
RESR	1 OUT {ESR/X}
.ENDS CESR

*$
.SUBCKT NMOSIDEAL_PS  D G S PARAMS: k=1 vth=0.5
RDDUM D 0 1e11
RSDUM S 0 1e11
RGDUM G 0 1e11
CG G D 0.01pF
CD D S 0.01pF
EON Yp 0 VALUE={IF(V(G,S) > {vth}, 1, 0)}
GOUT D S VALUE={IF(V(D,S) > (V(G,S)-{vth}), V(Yp)*({k}/2)*
+(V(G,S)-{vth})**2,
+ V(Yp)*({k})*(V(G,S)-{vth}-(V(D,S)/2))*V(D,S))}
.ENDS NMOSIDEAL_PS


.model D_D1 d
+ is=1e-015
+ n=1n
+ tt=1e-015


*$
.SUBCKT VCVSCLIP_PS YP YN POS NEG PARAMS: gain=1 vomax=1 vomin=-1
RP POS 0 1e11
CP POS 0 0.01pF
RN NEG 0 1e11
CN NEG 0 0.01pF
ROUTN YN 0 1e11
COUTN YN 0 0.01pF
EVCLP YP YN VALUE={LIMIT((V(POS)-V(NEG))*{gain},{vomax},{vomin})}
RO YP 0 1e11
.ENDS VCVSCLIP_PS

*$
.SUBCKT VCCS_CLIP_PS IOUT_P IOUT_N VIN_P VIN_N PARAMS: GM=1 IOMAX=1 IOMIN=1
RCTRLP VIN_P 0 1e11
RCTRLN VIN_N 0 1e11
GOUT IOUT_P IOUT_N VALUE={LIMIT({GM}*V(VIN_P,VIN_N), {IOMIN},{IOMAX})}
ROUTP IOUT_P 0 1e11
ROUTN IOUT_N 0 1e11
.ENDS VCCS_CLIP_PS
*$

.SUBCKT MUX2_BASIC_GEN A B S Y PARAMS: VDD=1 VSS=0 VTHRESH=0.5 
E_ABMGATE  YINT 0 VALUE {{IF(V(S) > {VTHRESH},  
+ V(B),V(A))}}
RINT YINT Y 1
CINT Y 0 1n
.ENDS MUX2_BASIC_GEN

.SUBCKT OR2_BASIC_GEN A B Y PARAMS: VDD=1 VSS=0 VTHRESH=0.5 
E_ABMGATE    YINT 0 VALUE {{IF(V(A) > {VTHRESH}  |  
+ V(B) > {VTHRESH},{VDD},{VSS})}}
RINT YINT Y 1
CINT Y 0 1n
.ENDS OR2_BASIC_GEN
*$

.SUBCKT AND2_BASIC_GEN A B Y PARAMS: VDD=1 VSS=0 VTHRESH=0.5 
E_ABMGATE    YINT 0 VALUE {{IF(V(A) > {VTHRESH}  &  
+ V(B) > {VTHRESH},{VDD},{VSS})}}
RINT YINT Y 1
CINT Y 0 1n
.ENDS AND2_BASIC_GEN
*$

.SUBCKT BUF_BASIC_GEN A  Y PARAMS: VDD=1 VSS=0 VTHRESH=0.5 
E_ABMGATE    YINT 0 VALUE {{IF(V(A) > {VTHRESH} , 
+ {VDD},{VSS})}}
RINT YINT Y 1
CINT Y 0 1n
.ENDS BUF_BASIC_GEN
*$

.SUBCKT INV_BASIC_GEN A  Y PARAMS: VDD=1 VSS=0 VTHRESH=0.5 
E_ABMGATE    YINT 0 VALUE {{IF(V(A) > {VTHRESH} , 
+ {VSS},{VDD})}}
RINT YINT Y 1
CINT Y 0 1n
.ENDS INV_BASIC_GEN

.SUBCKT XNOR2_BASIC_GEN A B Y PARAMS: VDD=1 VSS=0 VTHRESH=0.5 
E_ABMGATE  YINT 0 VALUE {{IF(V(A) > {VTHRESH}  ^  
+ V(B) > {VTHRESH},{VSS},{VDD})}}
RINT YINT Y 1
CINT Y 0 1n
.ENDS XNOR2_BASIC_GEN
*$

.SUBCKT COMP_BASIC_GEN INP INM Y PARAMS: VDD=1 VSS=0 VTHRESH=0.5	

E_ABM Yint 0 VALUE {IF (V(INP) > 
+ V(INM), {VDD},{VSS})}

R1 Yint Y 1

C1 Y 0 1n

.ENDS COMP_BASIC_GEN
*$

.SUBCKT COMPHYS_BASIC_GEN INP INM HYS OUT PARAMS: VDD=1 VSS=0 VTHRESH=0.5

EIN INP1 INM1 INP INM 1
 
EHYS INP1 INP2 VALUE { IF( V(1) > {VTHRESH},-V(HYS),0) }

EOUT OUT 0 VALUE { IF( V(INP2)>V(INM1), {VDD} ,{VSS}) }

R1 OUT 1 1

C1 1 0 5n

RINP1 INP1 0 1K

.ENDS COMPHYS_BASIC_GEN






















