*$
*TPS4H160B-Q1
*****************************************************************************
*  (C) Copyright 2015 Texas Instruments Incorporated. All rights reserved.
*****************************************************************************
** This model is designed as an aid for customers of Texas Instruments.
** TI and its licensors and suppliers make no warranties, either expressed
** or implied, with respect to this model, including the warranties of 
** merchantability or fitness for a particular purpose.  The model is
** provided solely on an "as is" basis.  The entire risk as to its quality
** and performance is with the customer
*****************************************************************************
*
* Released by: WEBENCH Design Center, Texas Instruments Inc.
* Part: TPS4H160B-Q1
* Date: 18DEC2015
* Model Type: Transient
* Simulator: PSPICE
* Simulator Version: 16.2.0.p001
* EVM Order Number: 
* EVM User's Guide:  
* Datasheet: Preliminary Draft Only Nov 2015  
*
* Model Version: Final 1.00
*
*****************************************************************************
*
* Updates:
*
* Final 1.00
* Release to Web.
*
*****************************************************************************
*
* Model Usage Notes:
*
* A. Features have been modelled
*	1. Switching characteristics
*	2. Programmable current limit with external resistor 
*	3. Short circuit/Over load protection
*	4. Inductive load negative voltage clamp
*	5. Overload and short to ground detection
*	6. Open load/short to battery detection during off state 
*	7. Multiplex high accuracy Current Sense or Fault report 
*
* B. Features haven't been modelled
*	1. Thermal shutdown and Thermal swing
*	2. Temperature dependent characteristics 
*
*****************************************************************************
.SUBCKT TPS4H160B-Q1_TRANS IN1 IN2 IN3 IN4 SEH SEL FAULTB CS CL  
+ DIAG_EN THER GND1 GND2 VS1 VS2 VS3 VS4 OUT1_1 OUT1_2 OUT2_1 OUT2_2
+ OUT3_1 OUT3_2 OUT4_1 OUT4_2 NC1 NC2 NC3
X_S1    CH1 0 CS1 CS TPS4H160B-Q1_S1 
X_U28         STB1 STB2 STB3 STB4 N16932404 OR4_BASIC_GEN PARAMS: VDD=1 VSS=0
+  VTHRESH=500E-3
R_R1         SEL 0  175k TC=0,0 
X_S6    CH3 0 CS3 CS TPS4H160B-Q1_S6 
E_ABM1         CNTRA 0 VALUE { IF(V(N16841974) > 0.5, 1, 0)    }
X_U24         N16870353 N16870526 CH1 AND2_BASIC_GEN PARAMS: VDD=1 VSS=0
+  VTHRESH=500E-3
X_U21         N16870353 N16871606 INV_BASIC_GEN PARAMS: VDD=1 VSS=0
+  VTHRESH=500E-3
X_U22         CNTRB N16870526 INV_BASIC_GEN PARAMS: VDD=1 VSS=0 VTHRESH=500E-3
X_U23         N16870526 N16871977 INV_BASIC_GEN PARAMS: VDD=1 VSS=0
+  VTHRESH=500E-3
X_U27         N16871606 N16871977 CH4 AND2_BASIC_GEN PARAMS: VDD=1 VSS=0
+  VTHRESH=500E-3
X_S7    CH4 0 CS4 CS TPS4H160B-Q1_S7 
R_R2         GND1 0  1m TC=0,0 
R_R7         N16861952 N16861942  72 TC=0,0 
G_U3_U3_G2         U3_U3_N17218694 U3_U3_GATE U3_U3_N17218727 0 15
C_U3_U3_C2         0 U3_U3_N17218658  1u IC=0 TC=0,0 
R_U3_U3_R10         U3_VCL_TH 0  6k TC=0,0 
E_U3_U3_ABM8         U3_U3_N17219011 0 VALUE { IF(V(U3_VCL_TH)
+  >1.5*V(CH3_VCL),1,0)    }
X_U3_U3_U11         U3_SWEN U3_U3_N17218755 one_shot PARAMS:  T=60000  
X_U3_U3_H1    U3_U3_N17218816 U3_U3_N17219186 U3_I_SENSE 0 DRIVER1_U3_U3_H1 
X_U3_U3_U6         U3_U3_N17219011 U3_U3_FASTTRIP one_shot PARAMS:  T=500  
C_U3_U3_C3         0 U3_U3_N17218727  1n IC=0 TC=0,0 
M_U3_U3_M1         U3_U3_N17218864 U3_U3_GATE U3_U3_N17218816 U3_U3_N17218816
+  NMOS01           
V_U3_U3_V20         U3_U3_N17218694 0 5
X_U3_U3_U15         U3_U3_N17219299 U3_U3_N17218818 one_shot PARAMS:  T=40000  
C_U3_U3_Cgs         U3_U3_GATE U3_U3_N17218816  1700p IC=0 TC=0,0 
V_U3_U3_V16         U3_U3_N172189400 VS3 4.5
R_U3_U3_R8         U3_U3_N17218816 U3_U3_GATE  200k TC=0,0 
X_U3_U3_U24         U3_U3_N17218818 U3_U3_N17219150 INV_BASIC_GEN PARAMS: VDD=1
+  VSS=0 VTHRESH=500E-3
X_U3_U3_U23         U3_SWEN U3_U3_N17219299 INV_BASIC_GEN PARAMS: VDD=1 VSS=0
+  VTHRESH=500E-3
G_U3_U3_ABM2I10         U3_U3_GATE 0 VALUE {
+  IF(V(U3_U3_N17218818)-V(0)>0.5,76u,0)    }
E_U3_U3_ABM1         U3_U3_N17218675 0 VALUE { IF(V(U3_SWEN)>0.5,2.24u,0)    }
R_U3_U3_R2         U3_U3_N17218675 U3_U3_N17218658  1 TC=0,0 
R_U3_U3_R9         U3_U3_N17218864 VS3  45m TC=0,0 
G_U3_U3_ABM2I5         U3_U3_GATE 0 VALUE {
+  IF(V(U3_U3_FASTTRIP)-V(0)>0.5,15m,0)    }
G_U3_U3_G1         U3_U3_N17218666 U3_U3_GATE U3_U3_N17218658 0 10
G_U3_U3_ABM2I4         U3_U3_GATE 0 VALUE {
+  LIMIT((V(U3_VCL_TH)-V(CH3_VCL))*10m,0,100u)    }
X_U3_U3_U14         U3_U3_N17219150 U3_U3_N17218903 one_shot PARAMS:  T=50000  
V_U3_U3_V14         VS3 U3_U3_N17218691 59
G_U3_U3_ABM2I1         U3_U3_GATE 0 VALUE {
+  IF(V(U3_U3_N17218903)-V(0)>0.5,5.4u,0)    }
V_U3_U3_V19         U3_U3_N17218666 0 5
D_U3_U3_D4         U3_U3_GATE U3_U3_N172189400 DD 
R_U3_U3_R3         U3_U3_N17218750 U3_U3_N17218727  500 TC=0,0 
D_U3_U3_D5         U3_U3_N17218691 U3_U3_N17218816 DD 
X_U3_U3_F1    U3_U3_N17219186 OUT3_1 VS3 U3_VCL_TH DRIVER1_U3_U3_F1 
E_U3_U3_ABM2         U3_U3_N17218750 0 VALUE { IF(V(U3_U3_N17218755)>0.5 &
+  V(U3_U3_GATE)<1.407,3.9u,0)    }
X_U3_U1_U3         U3_U1_N16778395 U3_IN_OK U3_SWEN AND2_BASIC_GEN PARAMS:
+  VDD=1 VSS=0 VTHRESH=500E-3
R_U3_U1_R1         IN3 0  175k TC=0,0 
X_U3_U1_U1         VS3 U3_U1_VUVR U3_U1_N167782823 U3_U1_N16778395
+  COMPHYS_BASIC_GEN PARAMS: VDD=1 VSS=0 VTHRESH=0.5
V_U3_U1_Vuv_hys         U3_U1_N167782823 0 0.5
V_U3_U1_V2         U3_U1_VUVR 0 3.7
R_U3_U1_R4         DIAG_EN 0  275k TC=0,0 
X_U3_U1_U2         IN3 U3_U1_N16778379 U3_U1_N167783383 U3_IN_OK
+  COMPHYS_BASIC_GEN PARAMS: VDD=1 VSS=0 VTHRESH=0.5
V_U3_U1_V3         U3_U1_N167783383 0 250m
X_U3_U1_U4         DIAG_EN U3_U1_N19306 U3_U1_N192183 U3_DIAG_EN_OK
+  COMPHYS_BASIC_GEN PARAMS: VDD=1 VSS=0 VTHRESH=0.5
V_U3_U1_V4         U3_U1_N16778379 0 2
V_U3_U1_V5         U3_U1_N192183 0 250m
V_U3_U1_V6         U3_U1_N19306 0 2
E_U3_U2_ABM5         U3_U2_CS_SETTLE 0 VALUE { IF(V(U3_U2_N16782231)>0.5,1,0)  
+   }
V_U3_U2_V5         U3_U2_N16782125 0 5
X_U3_U2_U18         U3_U2_N16781766 U3_U2_N16781722 INV_BASIC_GEN PARAMS: VDD=1
+  VSS=0 VTHRESH=500E-3
X_U3_U2_U23         U3_DIAG_EN_OK U3_U2_N16781898 INV_BASIC_GEN PARAMS: VDD=1
+  VSS=0 VTHRESH=500E-3
X_U3_U2_U14         U3_DIAG_EN_OK U3_U2_N16781701 INV_BASIC_GEN PARAMS: VDD=1
+  VSS=0 VTHRESH=500E-3
V_U3_U2_V12         U3_U2_VCS_H 0 5.52
E_U3_U2_ABM8         U3_U2_N16781766 0 VALUE { IF(V(U3_U2_N16781682)>0.5,1,0)  
+   }
E_U3_U2_ABM11         U3_U2_N16782119 0 VALUE { IF(V(U3_U2_PULL_UP)>0.5,
+  5.52,IF(V(U3_U2_PULL_DOWN)>0.5,0,V(CS3)))    }
X_U3_U2_U16         U3_U2_N16781803 U3_U2_N16781722 U3_U2_PULL_DOWN
+  OR2_BASIC_GEN PARAMS: VDD=1 VSS=0 VTHRESH=500E-3
X_U3_U2_U20         CS3 U3_U2_VCS_H d_d PARAMS:
X_U3_U2_U17         U3_U2_CL_FLAG3 U3_U2_N16781872 INV_BASIC_GEN PARAMS: VDD=1
+  VSS=0 VTHRESH=500E-3
R_U3_U2_R5         U3_U2_N16782119 CS3  1 TC=0,0 
V_U3_U2_V2         U3_U2_N16781870 0 1
X_U3_U2_U12         U3_IN_OK U3_U2_N16782152 INV_BASIC_GEN PARAMS: VDD=1 VSS=0
+  VTHRESH=500E-3
C_U3_U2_C3         0 U3_U2_N16781733  1u IC=0 TC=0,0 
R_U3_U2_R6         U3_IN_OK U3_U2_N16781682  72 TC=0,0 
R_U3_U2_R4         U3_U2_N16781701 U3_U2_N16781733  14.43 TC=0,0 
X_U3_U2_U21         U3_U2_N16781896 U3_U2_OL_OFF d_d PARAMS:
E_U3_U2_ABM6         U3_U2_N16781803 0 VALUE { IF(V(U3_U2_N16781733)>0.5,1,0)  
+   }
I_U3_U2_I1         0 U3_U2_N16782178 DC 2.777uAdc  
E_U3_U2_ABM3         U3_U2_OL_OFF_PU 0 VALUE { IF(V(U3_U2_N16781896)>0.5,1,0)  
+   }
X_U3_U2_U26         U3_U2_N16781898 U3_U2_OL_OFF_PU U3_U2_N16781936 STB3
+  OR3_BASIC_GEN PARAMS: VDD=1 VSS=0 VTHRESH=500E-3
X_U3_U2_U25         0 U3_U2_N16782178 d_d PARAMS:
R_U3_U2_R7         U3_U2_OL_OFF U3_U2_N16781896  808 TC=0,0 
C_U3_U2_C5         0 U3_U2_N16781682  1u IC=0 TC=0,0 
X_U3_U2_U7         U3_U2_VOL_OFF U3_U2_N16782155 U3_U2_N16782266 COMP_BASIC_GEN
+  PARAMS: VDD=1 VSS=0 VTHRESH=0.5
C_U3_U2_C1         U3_U2_N16782178 0  1n  TC=0,0 
X_U3_U2_U8         U3_U2_COMP U3_U2_N16781872 U3_U2_N16781936 N16782220
+  srlatchrhp_basic_gen PARAMS: VDD=1 VSS=0 VTHRESH=0.5
X_U3_U2_U11         U3_U2_N16782266 U3_U2_N16782152 U3_U2_OL_OFF AND2_BASIC_GEN
+  PARAMS: VDD=1 VSS=0 VTHRESH=500E-3
X_U3_U2_U15         U3_U2_OL_OFF_PU U3_U2_CL_FLAG3 U3_U2_PULL_UP OR2_BASIC_GEN
+  PARAMS: VDD=1 VSS=0 VTHRESH=500E-3
V_U3_U2_V11         U3_U2_VOL_OFF 0 1.8
R_U3_U2_R3         U3_IN_OK U3_U2_N16782231  216 TC=0,0 
C_U3_U2_C2         0 U3_U2_N16782231  1u IC=0 TC=0,0 
X_U3_U2_S1    U3_U2_CL_FLAG3 0 U3_U2_N16782178 0 CL_CS_FAULT3_U3_U2_S1 
X_U3_U2_U5         U3_VCL_TH CH3_VCL U3_U2_CL_FLAG3 COMP_BASIC_GEN PARAMS:
+  VDD=1 VSS=0 VTHRESH=0.5
C_U3_U2_C6         0 U3_U2_N16781896  1u IC=0 TC=0,0 
X_U3_U2_U22         U3_U2_N16782178 U3_U2_N16781870 d_d PARAMS:
V_U3_U2_V1         U3_U2_N16782193 0 0.5
E_U3_U2_ABM4         U3_U2_N16782155 0 VALUE { V(VS3)  
+ -V(OUT3_1)    }
G_U3_U2_ABMII1         U3_U2_N16782125 CS3 VALUE {
+  IF(V(U3_U2_CS_SETTLE)>0.5,V(U3_U2_N16782132),0)    }
X_U3_U2_U1         U3_U2_N16782178 U3_U2_N16782193 U3_U2_COMP COMP_BASIC_GEN
+  PARAMS: VDD=1 VSS=0 VTHRESH=0.5
E_U3_U2_ABM1         U3_U2_N16782132 0 VALUE { V(U3_I_SENSE)/300    }
E_U1_U2_ABM15         U1_U2_N16952215 0 VALUE { LIMIT(V(U1_U2_N16952178), 0,
+  250u)    }
X_U1_U2_U14         U1_DIAG_EN_OK U1_U2_N16951514 INV_BASIC_GEN PARAMS: VDD=1
+  VSS=0 VTHRESH=500E-3
X_U1_U2_U26         U1_U2_N16951855 U1_U2_OL_OFF_PU U1_U2_N16951428 STB1
+  OR3_BASIC_GEN PARAMS: VDD=1 VSS=0 VTHRESH=500E-3
X_U1_U2_U8         U1_U2_COMP U1_U2_N16951217 U1_U2_N16951428 N16951356
+  srlatchrhp_basic_gen PARAMS: VDD=1 VSS=0 VTHRESH=0.5
X_U1_U2_F5    U1_U2_N16952260 U1_U2_N16952615 U1_U2_5VDC U1_U2_N16952139
+  CL_CS_FAULT1_U1_U2_F5 
X_U1_U2_H2    U1_U2_N16952426 0 U1_U2_N16952465 0 CL_CS_FAULT1_U1_U2_H2 
V_U1_U2_V11         U1_U2_VOL_OFF 0 1.8
V_U1_U2_V2         U1_U2_N16951240 0 1
X_U1_U2_U7         U1_U2_VOL_OFF U1_U2_N16951508 U1_U2_N16951993 COMP_BASIC_GEN
+  PARAMS: VDD=1 VSS=0 VTHRESH=0.5
X_U1_U2_U11         U1_U2_N16951993 U1_U2_N16951492 U1_U2_OL_OFF AND2_BASIC_GEN
+  PARAMS: VDD=1 VSS=0 VTHRESH=500E-3
X_U1_U2_U18         U1_U2_N16951734 U1_U2_N16951572 INV_BASIC_GEN PARAMS: VDD=1
+  VSS=0 VTHRESH=500E-3
X_U1_U2_S1    U1_U2_CL_FLAG1 0 U1_U2_N16951274 0 CL_CS_FAULT1_U1_U2_S1 
E_U1_U2_ABM13         U1_U2_N16952502 0 VALUE { LIMIT(V(U1_U2_N16952465), 0,
+  250u)    }
R_U1_U2_R11         CH4_VCL 0  6k TC=0,0 
E_U1_U2_ABM8         U1_U2_N16951734 0 VALUE { IF(V(U1_U2_N16951219)>0.5,1,0)  
+   }
V_U1_U2_V5         U1_U2_N16951570 0 5
C_U1_U2_C1         U1_U2_N16951274 0  1n  TC=0,0 
X_U1_U2_F3    U1_U2_N16952556 U1_U2_N16952099 U1_U2_5VDC U1_U2_N16952426
+  CL_CS_FAULT1_U1_U2_F3 
R_U1_U2_R6         U1_IN_OK U1_U2_N16951219  72 TC=0,0 
C_U1_U2_C6         0 U1_U2_N16951784  1u IC=0 TC=0,0 
C_U1_U2_C5         0 U1_U2_N16951219  1u IC=0 TC=0,0 
X_U1_U2_H3    U1_U2_N16952010 0 U1_U2_N16952045 0 CL_CS_FAULT1_U1_U2_H3 
G_U1_U2_G4         0 CH4_VCL U1_U2_N16952215 0 1
X_U1_U2_U1         U1_U2_N16951274 U1_U2_N16951299 U1_U2_COMP COMP_BASIC_GEN
+  PARAMS: VDD=1 VSS=0 VTHRESH=0.5
E_U1_U2_ABM4         U1_U2_N16951508 0 VALUE { V(VS1)  
+ -V(OUT1_1)    }
R_U1_U2_R9         CH2_VCL 0  6k TC=0,0 
V_U1_U2_V1         U1_U2_N16951299 0 0.5
E_U1_U2_ABM14         U1_U2_N16952102 0 VALUE { LIMIT(V(U1_U2_N16952045), 0,
+  250u)    }
X_U1_U2_H1    U1_U2_N16952276 0 U1_U2_N16952311 0 CL_CS_FAULT1_U1_U2_H1 
C_U1_U2_C3         0 U1_U2_N16951680  1u IC=0 TC=0,0 
G_U1_U2_G2         0 CH2_VCL U1_U2_N16952502 0 1
X_U1_U2_F4    U1_U2_N16952099 U1_U2_N16952260 U1_U2_5VDC U1_U2_N16952010
+  CL_CS_FAULT1_U1_U2_F4 
R_U1_U2_R4         U1_U2_N16951514 U1_U2_N16951680  14.43 TC=0,0 
E_U1_U2_ABM3         U1_U2_OL_OFF_PU 0 VALUE { IF(V(U1_U2_N16951784)>0.5,1,0)  
+   }
E_U1_U2_ABM6         U1_U2_N16951873 0 VALUE { IF(V(U1_U2_N16951680)>0.5,1,0)  
+   }
E_U1_U2_ABM12         U1_U2_N16952389 0 VALUE { LIMIT(V(U1_U2_N16952311), 0,
+  250u)    }
X_U1_U2_U15         U1_U2_OL_OFF_PU U1_U2_CL_FLAG1 U1_U2_PULL_UP OR2_BASIC_GEN
+  PARAMS: VDD=1 VSS=0 VTHRESH=500E-3
X_U1_U2_U16         U1_U2_N16951873 U1_U2_N16951572 U1_U2_PULL_DOWN
+  OR2_BASIC_GEN PARAMS: VDD=1 VSS=0 VTHRESH=500E-3
X_U1_U2_F2    U1_U2_5VDC U1_U2_N16952556 U1_U2_5VDC U1_U2_N16952276
+  CL_CS_FAULT1_U1_U2_F2 
R_U1_U2_R10         CH3_VCL 0  6k TC=0,0 
X_U1_U2_U20         CS1 U1_U2_VCS_H d_d PARAMS:
X_U1_U2_U17         U1_U2_CL_FLAG1 U1_U2_N16951217 INV_BASIC_GEN PARAMS: VDD=1
+  VSS=0 VTHRESH=500E-3
X_U1_U2_U23         U1_DIAG_EN_OK U1_U2_N16951855 INV_BASIC_GEN PARAMS: VDD=1
+  VSS=0 VTHRESH=500E-3
X_U1_U2_F1    U1_U2_N16952619 CL U1_U2_N16952615 0 CL_CS_FAULT1_U1_U2_F1 
V_U1_U2_V12         U1_U2_VCS_H 0 5.52
I_U1_U2_I1         0 U1_U2_N16951274 DC 2.777uAdc  
R_U1_U2_R3         U1_IN_OK U1_U2_N16951682  216 TC=0,0 
V_U1_U2_V13         U1_U2_5VDC 0 5Vdc
X_U1_U2_U22         U1_U2_N16951274 U1_U2_N16951240 d_d PARAMS:
G_U1_U2_G3         0 CH3_VCL U1_U2_N16952102 0 1
V_U1_U2_V10         U1_U2_VCL_REF 0 0.8Vdc
R_U1_U2_R7         U1_U2_OL_OFF U1_U2_N16951784  808 TC=0,0 
C_U1_U2_C2         0 U1_U2_N16951682  1u IC=0 TC=0,0 
R_U1_U2_R5         U1_U2_N16951159 CS1  1 TC=0,0 
E_U1_U2_ABM5         U1_U2_CS_SETTLE 0 VALUE { IF(V(U1_U2_N16951682)>0.5,1,0)  
+   }
R_U1_U2_R8         U1_CH1_VCL 0  6k TC=0,0 
X_U1_U2_U25         0 U1_U2_N16951274 d_d PARAMS:
X_U1_U2_U21         U1_U2_N16951784 U1_U2_OL_OFF d_d PARAMS:
E_U1_U2_ABM11         U1_U2_N16951159 0 VALUE { IF(V(U1_U2_PULL_UP)>0.5,
+  5.52,IF(V(U1_U2_PULL_DOWN)>0.5,0,V(CS1)))    }
G_U1_U2_ABMII1         U1_U2_N16951570 CS1 VALUE {
+  IF(V(U1_U2_CS_SETTLE)>0.5,V(U1_U2_N16951770),0)    }
R_U1_U2_Rsource         U1_U2_N16952619 U1_U2_VCL_REF  1u TC=0,0 
E_U1_U2_ABM1         U1_U2_N16951770 0 VALUE { V(U1_I_SENSE)/300    }
X_U1_U2_H4    U1_U2_N16952139 0 U1_U2_N16952178 0 CL_CS_FAULT1_U1_U2_H4 
X_U1_U2_U5         U1_VCL_TH U1_CH1_VCL U1_U2_CL_FLAG1 COMP_BASIC_GEN PARAMS:
+  VDD=1 VSS=0 VTHRESH=0.5
G_U1_U2_G1         0 U1_CH1_VCL U1_U2_N16952389 0 1
X_U1_U2_U12         U1_IN_OK U1_U2_N16951492 INV_BASIC_GEN PARAMS: VDD=1 VSS=0
+  VTHRESH=500E-3
G_U1_U3_G2         U1_U3_N17218694 U1_U3_GATE U1_U3_N17218727 0 15
C_U1_U3_C2         0 U1_U3_N17218658  1u IC=0 TC=0,0 
R_U1_U3_R10         U1_VCL_TH 0  6k TC=0,0 
E_U1_U3_ABM8         U1_U3_N17219011 0 VALUE { IF(V(U1_VCL_TH)
+  >1.5*V(U1_CH1_VCL),1,0)    }
X_U1_U3_U11         U1_SWEN U1_U3_N17218755 one_shot PARAMS:  T=60000  
X_U1_U3_H1    U1_U3_N17218816 U1_U3_N17219186 U1_I_SENSE 0 DRIVER1_U1_U3_H1 
X_U1_U3_U6         U1_U3_N17219011 U1_U3_FASTTRIP one_shot PARAMS:  T=500  
C_U1_U3_C3         0 U1_U3_N17218727  1n IC=0 TC=0,0 
M_U1_U3_M1         U1_U3_N17218864 U1_U3_GATE U1_U3_N17218816 U1_U3_N17218816
+  NMOS01           
V_U1_U3_V20         U1_U3_N17218694 0 5
X_U1_U3_U15         U1_U3_N17219299 U1_U3_N17218818 one_shot PARAMS:  T=40000  
C_U1_U3_Cgs         U1_U3_GATE U1_U3_N17218816  1700p IC=0 TC=0,0 
V_U1_U3_V16         U1_U3_N172189400 VS1 4.5
R_U1_U3_R8         U1_U3_N17218816 U1_U3_GATE  200k TC=0,0 
X_U1_U3_U24         U1_U3_N17218818 U1_U3_N17219150 INV_BASIC_GEN PARAMS: VDD=1
+  VSS=0 VTHRESH=500E-3
X_U1_U3_U23         U1_SWEN U1_U3_N17219299 INV_BASIC_GEN PARAMS: VDD=1 VSS=0
+  VTHRESH=500E-3
G_U1_U3_ABM2I10         U1_U3_GATE 0 VALUE {
+  IF(V(U1_U3_N17218818)-V(0)>0.5,76u,0)    }
E_U1_U3_ABM1         U1_U3_N17218675 0 VALUE { IF(V(U1_SWEN)>0.5,2.24u,0)    }
R_U1_U3_R2         U1_U3_N17218675 U1_U3_N17218658  1 TC=0,0 
R_U1_U3_R9         U1_U3_N17218864 VS1  45m TC=0,0 
G_U1_U3_ABM2I5         U1_U3_GATE 0 VALUE {
+  IF(V(U1_U3_FASTTRIP)-V(0)>0.5,15m,0)    }
G_U1_U3_G1         U1_U3_N17218666 U1_U3_GATE U1_U3_N17218658 0 10
G_U1_U3_ABM2I4         U1_U3_GATE 0 VALUE {
+  LIMIT((V(U1_VCL_TH)-V(U1_CH1_VCL))*10m,0,100u)    }
X_U1_U3_U14         U1_U3_N17219150 U1_U3_N17218903 one_shot PARAMS:  T=50000  
V_U1_U3_V14         VS1 U1_U3_N17218691 59
G_U1_U3_ABM2I1         U1_U3_GATE 0 VALUE {
+  IF(V(U1_U3_N17218903)-V(0)>0.5,5.4u,0)    }
V_U1_U3_V19         U1_U3_N17218666 0 5
D_U1_U3_D4         U1_U3_GATE U1_U3_N172189400 DD 
R_U1_U3_R3         U1_U3_N17218750 U1_U3_N17218727  500 TC=0,0 
D_U1_U3_D5         U1_U3_N17218691 U1_U3_N17218816 DD 
X_U1_U3_F1    U1_U3_N17219186 OUT1_1 VS1 U1_VCL_TH DRIVER1_U1_U3_F1 
E_U1_U3_ABM2         U1_U3_N17218750 0 VALUE { IF(V(U1_U3_N17218755)>0.5 &
+  V(U1_U3_GATE)<1.407,3.9u,0)    }
X_U1_U1_U3         U1_U1_N16778395 U1_IN_OK U1_SWEN AND2_BASIC_GEN PARAMS:
+  VDD=1 VSS=0 VTHRESH=500E-3
R_U1_U1_R1         IN1 0  175k TC=0,0 
X_U1_U1_U1         VS1 U1_U1_VUVR U1_U1_N167782823 U1_U1_N16778395
+  COMPHYS_BASIC_GEN PARAMS: VDD=1 VSS=0 VTHRESH=0.5
V_U1_U1_Vuv_hys         U1_U1_N167782823 0 0.5
V_U1_U1_V2         U1_U1_VUVR 0 3.7
R_U1_U1_R4         DIAG_EN 0  275k TC=0,0 
X_U1_U1_U2         IN1 U1_U1_N16778379 U1_U1_N167783383 U1_IN_OK
+  COMPHYS_BASIC_GEN PARAMS: VDD=1 VSS=0 VTHRESH=0.5
V_U1_U1_V3         U1_U1_N167783383 0 250m
X_U1_U1_U4         DIAG_EN U1_U1_N19306 U1_U1_N192183 U1_DIAG_EN_OK
+  COMPHYS_BASIC_GEN PARAMS: VDD=1 VSS=0 VTHRESH=0.5
V_U1_U1_V4         U1_U1_N16778379 0 2
V_U1_U1_V5         U1_U1_N192183 0 250m
V_U1_U1_V6         U1_U1_N19306 0 2
X_U2_U1_U3         U2_U1_N16778395 U2_IN_OK U2_SWEN AND2_BASIC_GEN PARAMS:
+  VDD=1 VSS=0 VTHRESH=500E-3
R_U2_U1_R1         IN2 0  175k TC=0,0 
X_U2_U1_U1         VS2 U2_U1_VUVR U2_U1_N167782823 U2_U1_N16778395
+  COMPHYS_BASIC_GEN PARAMS: VDD=1 VSS=0 VTHRESH=0.5
V_U2_U1_Vuv_hys         U2_U1_N167782823 0 0.5
V_U2_U1_V2         U2_U1_VUVR 0 3.7
R_U2_U1_R4         DIAG_EN 0  275k TC=0,0 
X_U2_U1_U2         IN2 U2_U1_N16778379 U2_U1_N167783383 U2_IN_OK
+  COMPHYS_BASIC_GEN PARAMS: VDD=1 VSS=0 VTHRESH=0.5
V_U2_U1_V3         U2_U1_N167783383 0 250m
X_U2_U1_U4         DIAG_EN U2_U1_N19306 U2_U1_N192183 U2_DIAG_EN_OK
+  COMPHYS_BASIC_GEN PARAMS: VDD=1 VSS=0 VTHRESH=0.5
V_U2_U1_V4         U2_U1_N16778379 0 2
V_U2_U1_V5         U2_U1_N192183 0 250m
V_U2_U1_V6         U2_U1_N19306 0 2
G_U2_U3_G2         U2_U3_N17218694 U2_U3_GATE U2_U3_N17218727 0 15
C_U2_U3_C2         0 U2_U3_N17218658  1u IC=0 TC=0,0 
R_U2_U3_R10         U2_VCL_TH 0  6k TC=0,0 
E_U2_U3_ABM8         U2_U3_N17219011 0 VALUE { IF(V(U2_VCL_TH)
+  >1.5*V(CH2_VCL),1,0)    }
X_U2_U3_U11         U2_SWEN U2_U3_N17218755 one_shot PARAMS:  T=60000  
X_U2_U3_H1    U2_U3_N17218816 U2_U3_N17219186 U2_I_SENSE 0 DRIVER1_U2_U3_H1 
X_U2_U3_U6         U2_U3_N17219011 U2_U3_FASTTRIP one_shot PARAMS:  T=500  
C_U2_U3_C3         0 U2_U3_N17218727  1n IC=0 TC=0,0 
M_U2_U3_M1         U2_U3_N17218864 U2_U3_GATE U2_U3_N17218816 U2_U3_N17218816
+  NMOS01           
V_U2_U3_V20         U2_U3_N17218694 0 5
X_U2_U3_U15         U2_U3_N17219299 U2_U3_N17218818 one_shot PARAMS:  T=40000  
C_U2_U3_Cgs         U2_U3_GATE U2_U3_N17218816  1700p IC=0 TC=0,0 
V_U2_U3_V16         U2_U3_N172189400 VS2 4.5
R_U2_U3_R8         U2_U3_N17218816 U2_U3_GATE  200k TC=0,0 
X_U2_U3_U24         U2_U3_N17218818 U2_U3_N17219150 INV_BASIC_GEN PARAMS: VDD=1
+  VSS=0 VTHRESH=500E-3
X_U2_U3_U23         U2_SWEN U2_U3_N17219299 INV_BASIC_GEN PARAMS: VDD=1 VSS=0
+  VTHRESH=500E-3
G_U2_U3_ABM2I10         U2_U3_GATE 0 VALUE {
+  IF(V(U2_U3_N17218818)-V(0)>0.5,76u,0)    }
E_U2_U3_ABM1         U2_U3_N17218675 0 VALUE { IF(V(U2_SWEN)>0.5,2.24u,0)    }
R_U2_U3_R2         U2_U3_N17218675 U2_U3_N17218658  1 TC=0,0 
R_U2_U3_R9         U2_U3_N17218864 VS2  45m TC=0,0 
G_U2_U3_ABM2I5         U2_U3_GATE 0 VALUE {
+  IF(V(U2_U3_FASTTRIP)-V(0)>0.5,15m,0)    }
G_U2_U3_G1         U2_U3_N17218666 U2_U3_GATE U2_U3_N17218658 0 10
G_U2_U3_ABM2I4         U2_U3_GATE 0 VALUE {
+  LIMIT((V(U2_VCL_TH)-V(CH2_VCL))*10m,0,100u)    }
X_U2_U3_U14         U2_U3_N17219150 U2_U3_N17218903 one_shot PARAMS:  T=50000  
V_U2_U3_V14         VS2 U2_U3_N17218691 59
G_U2_U3_ABM2I1         U2_U3_GATE 0 VALUE {
+  IF(V(U2_U3_N17218903)-V(0)>0.5,5.4u,0)    }
V_U2_U3_V19         U2_U3_N17218666 0 5
D_U2_U3_D4         U2_U3_GATE U2_U3_N172189400 DD 
R_U2_U3_R3         U2_U3_N17218750 U2_U3_N17218727  500 TC=0,0 
D_U2_U3_D5         U2_U3_N17218691 U2_U3_N17218816 DD 
X_U2_U3_F1    U2_U3_N17219186 OUT2_1 VS2 U2_VCL_TH DRIVER1_U2_U3_F1 
E_U2_U3_ABM2         U2_U3_N17218750 0 VALUE { IF(V(U2_U3_N17218755)>0.5 &
+  V(U2_U3_GATE)<1.407,3.9u,0)    }
E_U2_U2_ABM11         U2_U2_N16786668 0 VALUE { IF(V(U2_U2_PULL_UP)>0.5,
+  5.52,IF(V(U2_U2_PULL_DOWN)>0.5,0,V(CS2)))    }
E_U2_U2_ABM8         U2_U2_N16786324 0 VALUE { IF(V(U2_U2_N16786240)>0.5,1,0)  
+   }
X_U2_U2_U20         CS2 U2_U2_VCS_H d_d PARAMS:
X_U2_U2_U16         U2_U2_N16786361 U2_U2_N16786280 U2_U2_PULL_DOWN
+  OR2_BASIC_GEN PARAMS: VDD=1 VSS=0 VTHRESH=500E-3
R_U2_U2_R5         U2_U2_N16786668 CS2  1 TC=0,0 
X_U2_U2_U17         U2_U2_CL_FLAG2 U2_U2_N16786786 INV_BASIC_GEN PARAMS: VDD=1
+  VSS=0 VTHRESH=500E-3
V_U2_U2_V2         U2_U2_N16786428 0 1
X_U2_U2_U12         U2_IN_OK U2_U2_N16786709 INV_BASIC_GEN PARAMS: VDD=1 VSS=0
+  VTHRESH=500E-3
C_U2_U2_C3         0 U2_U2_N16786288  1u IC=0 TC=0,0 
R_U2_U2_R6         U2_IN_OK U2_U2_N16786240  72 TC=0,0 
R_U2_U2_R4         U2_U2_N16786255 U2_U2_N16786288  14.43 TC=0,0 
X_U2_U2_U21         U2_U2_N16786452 U2_U2_OL_OFF d_d PARAMS:
E_U2_U2_ABM6         U2_U2_N16786361 0 VALUE { IF(V(U2_U2_N16786288)>0.5,1,0)  
+   }
I_U2_U2_I1         0 U2_U2_N16786735 DC 2.777uAdc  
E_U2_U2_ABM3         U2_U2_OL_OFF_PU 0 VALUE { IF(V(U2_U2_N16786452)>0.5,1,0)  
+   }
X_U2_U2_U26         U2_U2_N16786454 U2_U2_OL_OFF_PU U2_U2_N16786492 STB2
+  OR3_BASIC_GEN PARAMS: VDD=1 VSS=0 VTHRESH=500E-3
X_U2_U2_U25         0 U2_U2_N16786735 d_d PARAMS:
R_U2_U2_R7         U2_U2_OL_OFF U2_U2_N16786452  808 TC=0,0 
C_U2_U2_C5         0 U2_U2_N16786240  1u IC=0 TC=0,0 
X_U2_U2_U7         U2_U2_VOL_OFF U2_U2_N16786712 U2_U2_N16786825 COMP_BASIC_GEN
+  PARAMS: VDD=1 VSS=0 VTHRESH=0.5
X_U2_U2_U15         U2_U2_OL_OFF_PU U2_U2_CL_FLAG2 U2_U2_PULL_UP OR2_BASIC_GEN
+  PARAMS: VDD=1 VSS=0 VTHRESH=500E-3
C_U2_U2_C1         U2_U2_N16786735 0  1n  TC=0,0 
X_U2_U2_U8         U2_U2_COMP U2_U2_N16786786 U2_U2_N16786492 N16786777
+  srlatchrhp_basic_gen PARAMS: VDD=1 VSS=0 VTHRESH=0.5
X_U2_U2_U11         U2_U2_N16786825 U2_U2_N16786709 U2_U2_OL_OFF AND2_BASIC_GEN
+  PARAMS: VDD=1 VSS=0 VTHRESH=500E-3
X_U2_U2_U5         U2_VCL_TH CH2_VCL U2_U2_CL_FLAG2 COMP_BASIC_GEN PARAMS:
+  VDD=1 VSS=0 VTHRESH=0.5
V_U2_U2_V11         U2_U2_VOL_OFF 0 1.8
R_U2_U2_R3         U2_IN_OK U2_U2_N16786788  216 TC=0,0 
C_U2_U2_C2         0 U2_U2_N16786788  1u IC=0 TC=0,0 
X_U2_U2_S1    U2_U2_CL_FLAG2 0 U2_U2_N16786735 0 CL_CS_FAULT2_U2_U2_S1 
G_U2_U2_ABMII1         U2_U2_N16786671 CS2 VALUE {
+  IF(V(U2_U2_CS_SETTLE)>0.5,V(U2_U2_N16786684),0)    }
C_U2_U2_C6         0 U2_U2_N16786452  1u IC=0 TC=0,0 
E_U2_U2_ABM1         U2_U2_N16786684 0 VALUE { V(U2_I_SENSE)/300    }
X_U2_U2_U22         U2_U2_N16786735 U2_U2_N16786428 d_d PARAMS:
V_U2_U2_V1         U2_U2_N16786750 0 0.5
E_U2_U2_ABM4         U2_U2_N16786712 0 VALUE { V(VS2)  
+ -V(OUT2_1)    }
V_U2_U2_V5         U2_U2_N16786671 0 5
X_U2_U2_U1         U2_U2_N16786735 U2_U2_N16786750 U2_U2_COMP COMP_BASIC_GEN
+  PARAMS: VDD=1 VSS=0 VTHRESH=0.5
E_U2_U2_ABM5         U2_U2_CS_SETTLE 0 VALUE { IF(V(U2_U2_N16786788)>0.5,1,0)  
+   }
X_U2_U2_U18         U2_U2_N16786324 U2_U2_N16786280 INV_BASIC_GEN PARAMS: VDD=1
+  VSS=0 VTHRESH=500E-3
V_U2_U2_V12         U2_U2_VCS_H 0 5.52
X_U2_U2_U23         U2_DIAG_EN_OK U2_U2_N16786454 INV_BASIC_GEN PARAMS: VDD=1
+  VSS=0 VTHRESH=500E-3
X_U2_U2_U14         U2_DIAG_EN_OK U2_U2_N16786255 INV_BASIC_GEN PARAMS: VDD=1
+  VSS=0 VTHRESH=500E-3
X_U26         N16870353 N16871977 CH3 AND2_BASIC_GEN PARAMS: VDD=1 VSS=0
+  VTHRESH=500E-3
R_U4_U2_R7         U4_U2_OL_OFF U4_U2_N16781281  808 TC=0,0 
C_U4_U2_C5         0 U4_U2_N16781072  1u IC=0 TC=0,0 
X_U4_U2_U7         U4_U2_VOL_OFF U4_U2_N16781543 U4_U2_N16781656 COMP_BASIC_GEN
+  PARAMS: VDD=1 VSS=0 VTHRESH=0.5
X_U4_U2_U15         U4_U2_OL_OFF_PU U4_U2_CL_FLAG4 U4_U2_PULL_UP OR2_BASIC_GEN
+  PARAMS: VDD=1 VSS=0 VTHRESH=500E-3
C_U4_U2_C1         U4_U2_N16781566 0  1n  TC=0,0 
X_U4_U2_U8         U4_U2_COMP U4_U2_N16781617 U4_U2_N16781324 N16781608
+  srlatchrhp_basic_gen PARAMS: VDD=1 VSS=0 VTHRESH=0.5
X_U4_U2_U11         U4_U2_N16781656 U4_U2_N16781537 U4_U2_OL_OFF AND2_BASIC_GEN
+  PARAMS: VDD=1 VSS=0 VTHRESH=500E-3
X_U4_U2_U5         U4_VCL_TH CH4_VCL U4_U2_CL_FLAG4 COMP_BASIC_GEN PARAMS:
+  VDD=1 VSS=0 VTHRESH=0.5
V_U4_U2_V11         U4_U2_VOL_OFF 0 1.8
R_U4_U2_R3         U4_IN_OK U4_U2_N16781619  216 TC=0,0 
C_U4_U2_C2         0 U4_U2_N16781619  1u IC=0 TC=0,0 
X_U4_U2_S1    U4_U2_CL_FLAG4 0 U4_U2_N16781566 0 CL_CS_FAULT4_U4_U2_S1 
G_U4_U2_ABMII1         U4_U2_N16781502 CS4 VALUE {
+  IF(V(U4_U2_CS_SETTLE)>0.5,V(U4_U2_N16781515),0)    }
E_U4_U2_ABM1         U4_U2_N16781515 0 VALUE { V(U4_I_SENSE)/300    }
C_U4_U2_C6         0 U4_U2_N16781281  1u IC=0 TC=0,0 
X_U4_U2_U22         U4_U2_N16781566 U4_U2_N16781256 d_d PARAMS:
V_U4_U2_V1         U4_U2_N16781581 0 0.5
E_U4_U2_ABM4         U4_U2_N16781543 0 VALUE { V(VS4)  
+ -V(OUT4_1)    }
V_U4_U2_V5         U4_U2_N16781502 0 5
X_U4_U2_U1         U4_U2_N16781566 U4_U2_N16781581 U4_U2_COMP COMP_BASIC_GEN
+  PARAMS: VDD=1 VSS=0 VTHRESH=0.5
E_U4_U2_ABM5         U4_U2_CS_SETTLE 0 VALUE { IF(V(U4_U2_N16781619)>0.5,1,0)  
+   }
X_U4_U2_U18         U4_U2_N16781148 U4_U2_N16781112 INV_BASIC_GEN PARAMS: VDD=1
+  VSS=0 VTHRESH=500E-3
V_U4_U2_V12         U4_U2_VCS_H 0 5.52
X_U4_U2_U23         U4_DIAG_EN_OK U4_U2_N16781283 INV_BASIC_GEN PARAMS: VDD=1
+  VSS=0 VTHRESH=500E-3
X_U4_U2_U14         U4_DIAG_EN_OK U4_U2_N16781087 INV_BASIC_GEN PARAMS: VDD=1
+  VSS=0 VTHRESH=500E-3
E_U4_U2_ABM11         U4_U2_N16781499 0 VALUE { IF(V(U4_U2_PULL_UP)>0.5,
+  5.52,IF(V(U4_U2_PULL_DOWN)>0.5,0,V(CS4)))    }
E_U4_U2_ABM8         U4_U2_N16781148 0 VALUE { IF(V(U4_U2_N16781072)>0.5,1,0)  
+   }
X_U4_U2_U20         CS4 U4_U2_VCS_H d_d PARAMS:
X_U4_U2_U16         U4_U2_N16781193 U4_U2_N16781112 U4_U2_PULL_DOWN
+  OR2_BASIC_GEN PARAMS: VDD=1 VSS=0 VTHRESH=500E-3
R_U4_U2_R5         U4_U2_N16781499 CS4  1 TC=0,0 
X_U4_U2_U17         U4_U2_CL_FLAG4 U4_U2_N16781617 INV_BASIC_GEN PARAMS: VDD=1
+  VSS=0 VTHRESH=500E-3
V_U4_U2_V2         U4_U2_N16781256 0 1
X_U4_U2_U12         U4_IN_OK U4_U2_N16781537 INV_BASIC_GEN PARAMS: VDD=1 VSS=0
+  VTHRESH=500E-3
C_U4_U2_C3         0 U4_U2_N16781120  1u IC=0 TC=0,0 
R_U4_U2_R6         U4_IN_OK U4_U2_N16781072  72 TC=0,0 
R_U4_U2_R4         U4_U2_N16781087 U4_U2_N16781120  14.43 TC=0,0 
X_U4_U2_U21         U4_U2_N16781281 U4_U2_OL_OFF d_d PARAMS:
I_U4_U2_I1         0 U4_U2_N16781566 DC 2.777uAdc  
E_U4_U2_ABM6         U4_U2_N16781193 0 VALUE { IF(V(U4_U2_N16781120)>0.5,1,0)  
+   }
E_U4_U2_ABM3         U4_U2_OL_OFF_PU 0 VALUE { IF(V(U4_U2_N16781281)>0.5,1,0)  
+   }
X_U4_U2_U26         U4_U2_N16781283 U4_U2_OL_OFF_PU U4_U2_N16781324 STB4
+  OR3_BASIC_GEN PARAMS: VDD=1 VSS=0 VTHRESH=500E-3
X_U4_U2_U25         0 U4_U2_N16781566 d_d PARAMS:
X_U4_U1_U3         U4_U1_N16778395 U4_IN_OK U4_SWEN AND2_BASIC_GEN PARAMS:
+  VDD=1 VSS=0 VTHRESH=500E-3
R_U4_U1_R1         IN4 0  175k TC=0,0 
X_U4_U1_U1         VS4 U4_U1_VUVR U4_U1_N167782823 U4_U1_N16778395
+  COMPHYS_BASIC_GEN PARAMS: VDD=1 VSS=0 VTHRESH=0.5
V_U4_U1_Vuv_hys         U4_U1_N167782823 0 0.5
V_U4_U1_V2         U4_U1_VUVR 0 3.7
R_U4_U1_R4         DIAG_EN 0  275k TC=0,0 
X_U4_U1_U2         IN4 U4_U1_N16778379 U4_U1_N167783383 U4_IN_OK
+  COMPHYS_BASIC_GEN PARAMS: VDD=1 VSS=0 VTHRESH=0.5
V_U4_U1_V3         U4_U1_N167783383 0 250m
X_U4_U1_U4         DIAG_EN U4_U1_N19306 U4_U1_N192183 U4_DIAG_EN_OK
+  COMPHYS_BASIC_GEN PARAMS: VDD=1 VSS=0 VTHRESH=0.5
V_U4_U1_V4         U4_U1_N16778379 0 2
V_U4_U1_V5         U4_U1_N192183 0 250m
V_U4_U1_V6         U4_U1_N19306 0 2
G_U4_U3_G2         U4_U3_N17218694 U4_U3_GATE U4_U3_N17218727 0 15
C_U4_U3_C2         0 U4_U3_N17218658  1u IC=0 TC=0,0 
R_U4_U3_R10         U4_VCL_TH 0  6k TC=0,0 
E_U4_U3_ABM8         U4_U3_N17219011 0 VALUE { IF(V(U4_VCL_TH)
+  >1.5*V(CH4_VCL),1,0)    }
X_U4_U3_U11         U4_SWEN U4_U3_N17218755 one_shot PARAMS:  T=60000  
X_U4_U3_H1    U4_U3_N17218816 U4_U3_N17219186 U4_I_SENSE 0 DRIVER1_U4_U3_H1 
X_U4_U3_U6         U4_U3_N17219011 U4_U3_FASTTRIP one_shot PARAMS:  T=500  
C_U4_U3_C3         0 U4_U3_N17218727  1n IC=0 TC=0,0 
M_U4_U3_M1         U4_U3_N17218864 U4_U3_GATE U4_U3_N17218816 U4_U3_N17218816
+  NMOS01           
V_U4_U3_V20         U4_U3_N17218694 0 5
X_U4_U3_U15         U4_U3_N17219299 U4_U3_N17218818 one_shot PARAMS:  T=40000  
C_U4_U3_Cgs         U4_U3_GATE U4_U3_N17218816  1700p IC=0 TC=0,0 
V_U4_U3_V16         U4_U3_N172189400 VS4 4.5
R_U4_U3_R8         U4_U3_N17218816 U4_U3_GATE  200k TC=0,0 
X_U4_U3_U24         U4_U3_N17218818 U4_U3_N17219150 INV_BASIC_GEN PARAMS: VDD=1
+  VSS=0 VTHRESH=500E-3
X_U4_U3_U23         U4_SWEN U4_U3_N17219299 INV_BASIC_GEN PARAMS: VDD=1 VSS=0
+  VTHRESH=500E-3
G_U4_U3_ABM2I10         U4_U3_GATE 0 VALUE {
+  IF(V(U4_U3_N17218818)-V(0)>0.5,76u,0)    }
E_U4_U3_ABM1         U4_U3_N17218675 0 VALUE { IF(V(U4_SWEN)>0.5,2.24u,0)    }
R_U4_U3_R2         U4_U3_N17218675 U4_U3_N17218658  1 TC=0,0 
R_U4_U3_R9         U4_U3_N17218864 VS4  45m TC=0,0 
G_U4_U3_ABM2I5         U4_U3_GATE 0 VALUE {
+  IF(V(U4_U3_FASTTRIP)-V(0)>0.5,15m,0)    }
G_U4_U3_G1         U4_U3_N17218666 U4_U3_GATE U4_U3_N17218658 0 10
G_U4_U3_ABM2I4         U4_U3_GATE 0 VALUE {
+  LIMIT((V(U4_VCL_TH)-V(CH4_VCL))*10m,0,100u)    }
X_U4_U3_U14         U4_U3_N17219150 U4_U3_N17218903 one_shot PARAMS:  T=50000  
V_U4_U3_V14         VS4 U4_U3_N17218691 59
G_U4_U3_ABM2I1         U4_U3_GATE 0 VALUE {
+  IF(V(U4_U3_N17218903)-V(0)>0.5,5.4u,0)    }
V_U4_U3_V19         U4_U3_N17218666 0 5
D_U4_U3_D4         U4_U3_GATE U4_U3_N172189400 DD 
R_U4_U3_R3         U4_U3_N17218750 U4_U3_N17218727  500 TC=0,0 
D_U4_U3_D5         U4_U3_N17218691 U4_U3_N17218816 DD 
X_U4_U3_F1    U4_U3_N17219186 OUT4_1 VS4 U4_VCL_TH DRIVER1_U4_U3_F1 
E_U4_U3_ABM2         U4_U3_N17218750 0 VALUE { IF(V(U4_U3_N17218755)>0.5 &
+  V(U4_U3_GATE)<1.407,3.9u,0)    }
X_U16         CNTRA N16870353 INV_BASIC_GEN PARAMS: VDD=1 VSS=0 VTHRESH=500E-3
C_C6         0 N16861942  1u IC=0 TC=0,0 
R_R6         N16841995 N16841974  72 TC=0,0 