*TPS40007 TRANSIENT MODEL
*****************************************************************************
** This product is designed as an aid for customers of Texas Instruments. **
** No warranties, either expressed or implied, with respect to this third **
** party software (if any) or with respect to its fitness for any **
** particular purpose is claimed by Texas Instruments or the author. The **
** software (if any) is provided solely on an "as is" basis. The entire **
** risk as to its quality and performance is with the customer **
*****************************************************************************
*
* This model was developed for Texas Instruments Incorporated by:
* AEi Systems, LLC
* 5777 W. Century Blvd., Suite 876
* Los Angeles, California 90045
*
* This model is subject to change without notice. Neither Texas Instruments Incorporated 
* nor AEi Systems is responsible for updating this model.
* For more information regarding modeling services, model libraries and simulation 
* products, please call AEi Systems at (310) 216-1144, or contact AEi Systems by email: 
* info@AENG.com. Or visit AEi Systems on the web at http://www.AENG.com.
*
*****************************************************************************
* 
* Released by: Analog e-Lab Design Center, Texas Instruments Inc.
* Part: TPS40007
* Date: 08/22/2008
* Model Type: Transient
* Simulator: PSpice
* EVM Order Number: TPS40007EVM-001
* EVM Users Guide: sluu188.pdf
* Datasheet: slus589b, revised 2005
*
*****************************************************************************
*
* Updates:
*
* Final 1.10
* Release to Web.
*
*****************************************************************************
*$
.PARAM  FREQ=300E3 TCLK=200E-9
.SUBCKT TPS40007 BOOT COMP2 FB GND HDRV ILIM LDRV SS_SD SW VDD  
*R_R1         GND 0  1m  
X_U10_U6          SW U10_N53472 U10_N57001 COMP
X_U10_U8          ILIM SW U10_N78312 COMP
R_U10_R1         U10_N11884 BOOT  40  
G_U10_G1         ILIM 0 U10_N54625 0 15e-6
X_U10_U1          VDD U10_N11884 DC_1mV_1mA_1V_1nA
X_U10_U11         N04119 U10_PWMH2 DELAY PARAMS:  T=70  
X_U10_S2    U10_N60714 0 U10_N60065 SW DRIVER_U10_S2 
X_U10_U10         U10_N57001 U10_N57038 DELAY PARAMS:  T=100  
D_U10_D3         SW U10_N60065 DIDEAL 
V_U10_V1         VDD U10_N53472 1.2
X_U10_U15          U10_PWMH2 U10_N60714 INV
X_U10_S3    U10_N62648 0 VDD U10_N62604 DRIVER_U10_S3 
X_U10_S1    U10_PWMH2 0 BOOT U10_N60065 DRIVER_U10_S1 
D_U10_D5         0 U10_N62604 DIDEAL 
R_U10_R3         U10_PWMH2 U10_N96342  100  
X_U10_U20          U10_N57038 U10_N57200 U10_N96342 U10_N99010 AND3
X_U10_S4    U10_N69639 0 U10_N62604 0 DRIVER_U10_S4 
D_U10_D4         U10_N62604 VDD DIDEAL 
C_U10_C2         U10_N96342 0  200p  
G_U10_G3         U10_N62604 LDRV TABLE { V(U10_N62604, LDRV) } 
+ ( (-20,-2.7)(-1,-2.6)(-10m,-2.5)(0,0)(10m,1)(1,1.1)(20,1.2) )
C_U10_C1         U10_N57200 0  200p  
X_U10_U12         N04284 U10_N62648 DELAY PARAMS:  T=80  
R_U10_R4         U10_N99010 U10_N99158  100  
R_U10_R2         U10_N78312 U10_N57200  100  
X_U10_U7          UVLO U10_N54625 INV
X_U10_U21          U10_N99158 OC BUFFER
C_U10_C3         U10_N99158 0  200p  
G_U10_G2         U10_N60065 HDRV TABLE { V(U10_N60065, HDRV) } 
+ ( (-20,-1.7)(-1,-1.6)(-10m,-1.5)(0,0)(10m,1)(1,1.1)(20,1.2) )
D_U10_D2         U10_N60065 BOOT DIDEAL 
X_U10_U16          U10_N62648 U10_N69639 INV
X_U40_U7          U40_N06495 U40_N10793 INV
X_U40_U15          U40_N10793 U40_N22100 U40_N24155 U40_N10742 AND3
X_U40_U5          U40_N05841 CLK U40_N06495 AND_1
X_U40_U12          U40_N11076 U40_N22100 INV
X_U40_U13          OC U40_N15003 U40_N057730 OR
X_U40_U11          U40_SRAMP U40_N20101 U40_N09765 COMP
X_U40_U19          U40_N26443 U40_N07554 INV
X_U40_U14          UVLO SDN OCF U40_FAULT OR3
I_U40_I1         U40_N07574 U40_SRAMP DC {1e-9*FREQ/128}  
X_U40_U6          U40_N06495 U40_FAULT N04119 AND_1
X_U40_U17         CLK U40_N25078 ONE_SHOT_1 PARAMS:  T=50  
C_U40_C1         U40_SRAMP 0  1n IC={SS} 
E_U40_ABM1         U40_N14671 0 VALUE { (V(U40_RAMP) *0.93)+0.31    }
X_U40_U10         U40_N09765 U40_N06495 U40_N11076 RSFF_RDOM 
X_U40_S1    U40_N07554 0 U40_SRAMP 0 PWMOSC_U40_S1 
X_U40_U16         U40_N25078 U40_N06495 U40_N24155 RSFF_RDOM 
X_U40_U18         U40_FAULT U40_N30075 U40_N26443 RSFF_RDOM 
X_U40_U3          U40_N14671 COMP2 U40_N15003 COMP
V_U40_V1         U40_N07574 0 1.1
X_U40_U9          U40_SRAMP U40_N07574 DC_1mV_1mA_1V_1nA
X_U40_U1         U40_FAULT U40_RAMP CLK OSC PARAMS:  FREQ={FREQ}  TCLK={TCLK}
X_U40_U20          U40_N29121 N04119 U40_N30075 OR
V_U40_V2         U40_N29121 0 PULSE {SS} 0 0 1u 1u 1u 10
X_U40_U4         U40_N057730 CLK U40_N05841 RSFF_RDOM 
E_U40_ABM2         U40_N20101 0 VALUE { 1-V(U40_RAMP)    }
X_U40_U8          U40_N10742 U40_FAULT N04284 AND_1
I_U20_I1         VDDBUF SS_SD DC 3.7u  
X_U20_U3          U20_VREF U20_N02249 DC_1mV_1mA_1V_1nA
R_U20_R1         U20_N018241 U20_VREF  1k  
X_U20_U1          SS_SD VDDBUF DC_1mV_1mA_1V_1nA
X_U20_U5          U20_N04564 SS_SD U20_N04560 SDN COMP_HYS
V_U20_V3         U20_N04564 0 0.275
V_U20_V2         U20_N02249 0 0.7
V_U20_V4         U20_N04560 0 0.03
X_U20_U2          0 U20_VREF DC_1mV_1mA_1V_1nA
X_U20_U4         U20_VREF FB U20_N58536 OP_AMP PARAMS:  HLIMIT=2.5 RIN=23.3MEG
+  BW=10MEG DC_GAIN=85 ROUT=100 LLIMIT=0.08 SRP=10   SRM=10 
X_U20_S1    UVLO 0 SS_SD 0 EASS_U20_S1 
E_U20_ABM1         U20_N018241 0 VALUE { V(SS_SD) -0.65    }
X_U20_S2    UVLO 0 COMP2 0 EASS_U20_S2 
G_U20_G2         U20_N58536 COMP2 TABLE { V(U20_N58536, COMP2) } 
+ ( (-10,-0.0088)(-1m,-0.008)(0,0)(1m,6m)(10,6.6m) )
X_U30_U1          U30_N00394 VDD U30_N00387 UVLO COMP_HYS
X_U30_U8          OCF U30_N10608 U30_N21703 AND
X_U30_U9          0 U30_OCRAMP DC_1mV_1mA_1V_1nA
X_U30_S1    U30_N13180 0 SS_SD 0 HK_U30_S1 
V_U30_V1         U30_N00394 0 2.125
X_U30_U4          U30_OCRAMP U30_N07841 U30_N07837 OCF COMP_HYS
X_U30_U12          CLK U30_OCF2 U30_N128740 AND_1
V_U30_V6         U30_N09461 0 8
G_U30_G1         0 U30_OCRAMP U30_N01681 0 0.02
V_U30_V3         U30_N07841 0 4.5
V_U30_V2         U30_N00387 0 0.15
X_U30_U10          U30_N128740 U30_N13180 U30_N13026 OR
V_U30_V4         U30_N07837 0 6
G_U30_G2         U30_OCRAMP 0 U30_N07367 0 0.01
X_U30_U6          SS_SD U30_N06186 U30_SSDONE COMP
V_U30_V5         U30_N06186 0 1.4
X_U30_U5          SS_SD U30_N09845 U30_N09841 U30_N10608 COMP_HYS
C_U30_C3         0 U30_N13180  50n IC=0 
X_U30_U3         U30_N13026 U30_N07367 ONE_SHOT PARAMS:  T=100  
V_U30_V7         U30_N09845 0 0.7
R_U30_R2         U30_N21703 U30_N13180  1  
E_U30_E1         VDDBUF 0 VDD 0 1
V_U30_V8         U30_N09841 0 1.2
R_U30_R1         OCF U30_OCF2  1  
X_U30_U11          OC U30_SSDONE U30_N14826 AND
C_U30_C1         0 U30_OCRAMP  1n IC=0 
X_U30_U2         U30_N14826 U30_N01681 ONE_SHOT PARAMS:  T=100  
C_U30_C2         0 U30_OCF2  50n IC=0 
X_U30_U7          U30_OCRAMP U30_N09461 DC_1mV_1mA_1V_1nA
.ENDS
*$
.model DIDEAL D Is=1e-14 Cjo=0.1p Rs=0.1
*$
.subckt DRIVER_U10_S2 1 2 3 4  
S_U10_S2         3 4 1 2 _U10_S2
RS_U10_S2         1 2 1G
.MODEL         _U10_S2 VSWITCH Roff=1e6 Ron=1.5 Voff=0.25V Von=0.75V
.ends 
*$
.subckt DRIVER_U10_S3 1 2 3 4  
S_U10_S3         3 4 1 2 _U10_S3
RS_U10_S3         1 2 1G
.MODEL         _U10_S3 VSWITCH Roff=1e6 Ron=3 Voff=0.25V Von=0.75V
.ends 
*$
.subckt DRIVER_U10_S1 1 2 3 4  
S_U10_S1         3 4 1 2 _U10_S1
RS_U10_S1         1 2 1G
.MODEL         _U10_S1 VSWITCH Roff=1e6 Ron=3 Voff=0.25V Von=0.75V
.ends 
*$
.subckt DRIVER_U10_S4 1 2 3 4  
S_U10_S4         3 4 1 2 _U10_S4
RS_U10_S4         1 2 1G
.MODEL         _U10_S4 VSWITCH Roff=1e6 Ron=1.5 Voff=0.25V Von=0.75V
.ends 
*$
.subckt PWMOSC_U40_S1 1 2 3 4  
S_U40_S1         3 4 1 2 _U40_S1
RS_U40_S1         1 2 1G
.MODEL         _U40_S1 VSWITCH Roff=1e9 Ron=1.0 Voff=0.25V Von=0.75V
.ends 
*$
.subckt EASS_U20_S1 1 2 3 4  
S_U20_S1         3 4 1 2 _U20_S1
RS_U20_S1         1 2 1G
.MODEL         _U20_S1 VSWITCH Roff=1e9 Ron=1.0 Voff=0.25V Von=0.75V
.ends 
*$
.subckt EASS_U20_S2 1 2 3 4  
S_U20_S2         3 4 1 2 _U20_S2
RS_U20_S2         1 2 1G
.MODEL         _U20_S2 VSWITCH Roff=1e9 Ron=100 Voff=0.25V Von=0.75V
.ends 
*$
.subckt HK_U30_S1 1 2 3 4  
S_U30_S1         3 4 1 2 _U30_S1
RS_U30_S1         1 2 1G
.MODEL         _U30_S1 VSWITCH Roff=1e9 Ron=10 Voff=0.25V Von=0.75V
.ends 
*$
.SUBCKT OSC FAULT RAMP CLK PARAMS:  FREQ=300E3 TCLK=200E-9
VCLK         CLK 0 PULSE 0 1 {TON} 1n 1n {TCLK} {1/FREQ}
S1    RAMP 0 2 0 S1M 
EOUT1         2 0 VALUE { if( V(FAULT)>0.5 | V(CLK)>0.5,1,0)    }
ICH         0 RAMP DC {ICHARGE}  
COSC         0 RAMP  1n IC=0
.PARAM  ICHARGE={1E-9/TON} RON={TCLK/100/1E-9} TON={(1/FREQ)-TCLK}
.MODEL         S1M VSWITCH Roff=1G Ron=1m Voff=0.25 Von=0.75 
.ENDS 
*$
.SUBCKT RSFF_RDOM R S Q
EABM1  1 0 VALUE { If( V(S)>0.5 | V(Q)>0.5, 1,0)    }
EABM2  Q  0 VALUE { If( V(2)>0.5 & V(R)<0.5, 1,0)    }
R1   1 2 1
C1   2  0 5n
.ENDS 
*$
.SUBCKT COMP_HYS INP INM HYS OUT 
EIN INP1 INM1 INP INM 1 
EHYS INP1 INP2 VALUE { IF( V(1)>0.5,-V(HYS)/2,V(HYS)/2) }
EOUT OUT 0 VALUE { IF( V(INP2)>V(INM1),1,0) }
R1 OUT 1 1
C1 1 0 5n
RINP1 INP1 0 1K
.ends 
*$
.SUBCKT COMP INP INM OUT  
EOUT OUT 0 VALUE { IF( V(INP)>V(INM),1,0) }
.ends 
*$
.SUBCKT AND A B OUT  
EOUT OUT 0 VALUE { IF( V(A)>0.5 & V(B)>0.5,1,0) }
.ends 
*$
.SUBCKT AND_1 A B OUT  
EOUT OUT 0 VALUE { IF( V(A)>0.5 & V(B)<0.5,1,0) }
.ends 
*$
.SUBCKT DELAY IN OUT PARAMs:  T=100
S_S1         MEAS 0 RESET2 0 S1
E_ABM1         CH 0 VALUE { if( V(IN)>0.5,1,0)    }
E_ABM3         OUT 0 VALUE { if( V(MEAS)>0.5 & V(CH)>0.5,1,0)    }
R_R1         MEAS CH  {T} 
C_C1         0 MEAS  1.4427n  
E_ABM2         RESET 0 VALUE { if(V(CH)<0.5,1,0)    }
R_R2         RESET2 RESET  0.1  
C_C2         0 RESET2  1.4427n  
.MODEL         S1 VSWITCH Roff=1e9 Ron=1.0 Voff=0.25V Von=0.75V
.ENDS 
*$
.SUBCKT INV IN OUT  
EOUT OUT 0 VALUE { IF( V(IN)<0.5,1,0) }
.ends 
*$
.SUBCKT ONE_SHOT_1 IN OUT PARAMs:  T=100
S_S1         MEAS 0 RESET2 0 S1
E_ABM1         CH 0 VALUE { if( V(IN)<0.5 | V(OUT)>0.5,1,0)    }
R_R2         RESET2 RESET  0.1  
E_ABM3         OUT 0 VALUE { if( V(MEAS)<0.5 & V(CH)>0.5,1,0)    }
R_R1         MEAS CH  {T} 
C_C2         0 RESET2  1.4427n  
C_C1         0 MEAS  1.4427n  
E_ABM2         RESET 0 VALUE { if(V(CH)<0.5,1,0)    }
.MODEL         S1 VSWITCH Roff=1e9 Ron=1.0 Voff=0.25V Von=0.75V
.ENDS 
*$
.SUBCKT OR A B OUT  
EOUT OUT 0 VALUE { IF( V(A)>0.5 | V(B)>0.5,1,0) }
.ends 
*$
.SUBCKT OR3 A B C OUT  
EOUT OUT 0 VALUE { IF( V(A)>0.5 | V(B)>0.5 | V(C)>0.5,1,0) }
.ends 
*$
.subckt DC_1mV_1mA_1V_1nA A C
G1 A C TABLE { V(A, C) } ( (-1,-1n)(0,0)(1m,1m) (2m,100m) (3m,10) )
.ends  
*$
.SUBCKT AND3 A B C OUT  
EOUT OUT 0 VALUE { IF( V(A)>0.5 & V(B)>0.5 & V(C)>0.5,1,0) }
.ends 
*$
.SUBCKT ONE_SHOT IN OUT PARAMs:  T=100
S_S1         MEAS 0 RESET2 0 S1
E_ABM1         CH 0 VALUE { if( V(IN)>0.5 | V(OUT)>0.5,1,0)    }
R_R2         RESET2 RESET  0.1  
E_ABM3         OUT 0 VALUE { if( V(MEAS)<0.5 & V(CH)>0.5,1,0)    }
R_R1         MEAS CH  {T} 
C_C2         0 RESET2  1.4427n  
C_C1         0 MEAS  1.4427n  
E_ABM2         RESET 0 VALUE { if(V(CH)<0.5,1,0)    }
.MODEL         S1 VSWITCH Roff=1e9 Ron=1.0 Voff=0.25V Von=0.75V
.ENDS 
*$
.SUBCKT OP_AMP P M OUT PARAMs:  Hlimit=5 Rin=10Meg BW=18Meg DC_Gain=100 Rout=100 Llimit=0 SRP=1 SRM=1
.PARAM  Ra=1k   Ca={exp(DC_gain*log(10)/20)/(2*3.14159*BW*Ra)} 
+ Gain={exp(DC_gain*log(10)/20)/Ra} 
R_Rin         P M  {Rin}
E_E1          5 0 M P {-Gain}
E_LIMIT2      6 0 VALUE {LIMIT(V(5), {-Abs(SRM)*Ca*1Meg+V(1)/Ra},
+                 {SRP*Ca*1Meg+V(1)/Ra})}
G_G2          1 0 6 0 -1
R_Ra          0 1  {Ra} 
C_Ca          0 1  {Ca}   
E_LIMIT1      2 0 VALUE {LIMIT(V(1),{Llimit},{Hlimit})}
V_VL          3 0 {Llimit+200m}
V_VH          4 0 {Hlimit-200m}
D_D1          3 1 Dideal 
D_D2          1 4 Dideal 
R_Rout        OUT 2  {Rout}
.model Dideal D Is=1e-10 Cjo=.01pF Rs=1m  N=1
.ENDS
*$
.SUBCKT BUFFER IN OUT  
EOUT OUT 0 VALUE { IF( V(IN)>0.5,1,0) }
.ends 
*$
.SUBCKT SI4866DY   10 20 30
*     TERMINALS:  D  G  S
M1   1  2  3  3  DMOS L=1U W=1U
RD  10  1  1.14m
RS  40  3  1.11m
RG  20  2  10.0
CGS  2  3  40p 
EGD 12  0  2  1  1
VFB 14  0  0
FFB  2  1  VFB  1
CGD 13 14  1p 
R1  13  0  1.00
D1  12 13  DLIM
DDG 15 14  DCGD
R2  12 15  1.00
D2  15  0  DLIM
DSD  3 10  DSUB
LS  30 40  1.50n
.MODEL DMOS NMOS(LEVEL=3 VMAX=10k THETA=80.0m
+ ETA=2.00m VTO=1 KP=86
.MODEL DCGD D (CJO=2.77n VJ=0.600 M=0.680
.MODEL DSUB D (IS=1.27u N=1.50 RS=4.67m BV=60.0
+ CJO=2.4n VJ=0.380 M=0.420 TT=40.0n
.MODEL DLIM D (IS=100U)
.ENDS
*$
.SUBCKT CAPRLC 1 2 PARAMS: ESR=10m ESL=0 C=470u IC=0
*Parameters: C Capacitance in Farads, ESR ESR in Ohms
* ESL ESL in Henries. 
C1 1 3 {C} IC={IC}
R1 3 4 {ESR}
L1 4 2 {ESL}
.ENDS
*$
.SUBCKT INDRL 1 2 PARAMS: L=1u ESR=3.5m IC=0
*Parameters: L Inductance in Henries, ESR ESR in Ohms
L1 1 3 {L} IC = {IC}
R1 3 2 {ESR}
.ENDS
*$

