*$
*TPS43340-Q1
*****************************************************************************
* (C) Copyright 2013 Texas Instruments Incorporated. All rights reserved.                                            
*****************************************************************************
** This model is designed as an aid for customers of Texas Instruments.
** TI and its licensors and suppliers make no warranties, either expressed
** or implied, with respect to this model, including the warranties of 
** merchantability or fitness for a particular purpose.  The model is
** provided solely on an "as is" basis.  The entire risk as to its quality
** and performance is with the customer
*****************************************************************************
*
* This model is subject to change without notice. Texas Instruments
* Incorporated is not responsible for updating this model.
*
*****************************************************************************
*
** Released by: WEBENCH Design Center, Texas Instruments Inc.
* Part: TPS43340-Q1
* Date: 19APR2013
* Model Type: TRANSIENT
* Simulator: PSPICE
* Simulator Version: 16.2.0.p001
* EVM Order Number: TPS4334xEVM
* EVM Users Guide: SLVU463-July 2011
* Datasheet: SLVSB16C NOVEMBER 2011 - REVISED JANUARY 2013
*
* Model Version: Final 1.0
*
*****************************************************************************
*
* Updates:
*
* Final 1.0
* Release to Web.
*
*****************************************************************************
.SUBCKT TPS43340-Q1_BUCK1_TRANS AGND BOOTX COMPX ENX EXTSUP GLX GPULL GUX
+  PGNDX PHX RDELAY RSTX RT SSX SX1 SX2 SYNC VIN VREG VSENSEX  
X_U9_BUCK12_U612         U9_BUCK12_PGOOD_D U9_BUCK12_PGOOD_D
+  U9_BUCK12_N16616119 U9_BUCK12_PG_EN_B NAND3_BASIC_GEN PARAMS: VDD=1 VSS=0
+  VTHRESH=500E-3
X_U9_BUCK12_S19    U9_BUCK12_PG_EN_B 0 RSTX 0 PGOOD_U9_BUCK12_S19 
X_U9_BUCK12_U611         SDWN U9_BUCK12_N16616119 INV_BASIC_GEN PARAMS: VDD=1
+  VSS=0 VTHRESH=500E-3
C_U9_BUCK12_C5         0 U9_BUCK12_N16784615  1n  
R_U9_BUCK12_R5         U9_BUCK12_N167846331 U9_BUCK12_N16784615  1  
R_U9_BUCK12_U12_R1         0 RDELAY  1G  
V_U9_BUCK12_U12_V4         U9_BUCK12_U12_N16647524 0 2
X_U9_BUCK12_U12_U8         U9_BUCK12_U12_N16800540 U9_BUCK12_U12_N16800633
+  U9_BUCK12_U12_D2 COMP_BASIC_GEN PARAMS: VDD=1 VSS=0 VTHRESH=0.5
X_U9_BUCK12_U12_U4         U9_BUCK12_U12_N16615680 U9_BUCK12_U12_N16647732
+  one_shot_BUCK12 PARAMS:  T=20
C_U9_BUCK12_U12_C7         0 U9_BUCK12_U12_N16783188  1n  TC=0,0 
C_U9_BUCK12_U12_C8         0 U9_BUCK12_U12_N16800540  1n  TC=0,0 
X_U9_BUCK12_U12_U7         RDELAY U9_BUCK12_U12_N16615878
+  U9_BUCK12_U12_N16615680 COMP_BASIC_GEN PARAMS: VDD=1 VSS=0 VTHRESH=0.5
D_U9_BUCK12_U12_D14         U9_BUCK12_U12_N16800540 U9_BUCK12_U12_N16803565
+  D_D1 
X_U9_BUCK12_U12_S2    U9_BUCK12_U12_PG_TR 0 U9_BUCK12_U12_N16647378 0
+  DLYAB_OSC_U9_BUCK12_U12_S2 
R_U9_BUCK12_U12_R2         0 U9_BUCK12_U12_N16800540  1G  
X_U9_BUCK12_U12_S3    U9_BUCK12_U12_PG_DELAY 0 U9_BUCK12_U12_N16783828
+  U9_BUCK12_U12_N16783188 DLYAB_OSC_U9_BUCK12_U12_S3 
X_U9_BUCK12_U12_U621         U9_BUCK12_U12_N16778495 U9_BUCK12_PGOOD
+  U9_BUCK12_U12_PG_TR XOR2_BASIC_GEN PARAMS: VDD=1 VSS=0 VTHRESH=500E-3
C_U9_BUCK12_U12_C6         0 RDELAY  1p  TC=0,0 
X_U9_BUCK12_U12_U611         U9_BUCK12_PGOOD U9_BUCK12_U12_N16778495
+  BUF_DELAY_BASIC_GEN PARAMS: VDD=1 VSS=0 VTHRESH=0.5 DELAY=20n
X_U9_BUCK12_U12_U613         U9_BUCK12_U12_N16783188 U9_BUCK12_PGOOD_D
+  BUF_BASIC_GEN PARAMS: VDD=1 VSS=0 VTHRESH=0.5
E_U9_BUCK12_U12_ABM5         U9_BUCK12_U12_N16615878 0 VALUE {
+  ((V(U9_BUCK12_U12_N16615680)*-1) + 1.8)    }
X_U9_BUCK12_U12_U623         U9_BUCK12_U12_D1 U9_BUCK12_U12_PG_TR
+  U9_BUCK12_U12_N16817225 OR2_BASIC_GEN PARAMS: VDD=1 VSS=0 VTHRESH=500E-3
G_U9_BUCK12_U12_ABMII2         0 U9_BUCK12_U12_N16647378 VALUE {
+  (V(U9_BUCK12_U12_N16647732)*5m)    }
V_U9_BUCK12_U12_V5         U9_BUCK12_U12_N16786288 0 2.2
X_U9_BUCK12_U12_U612         U9_BUCK12_PGOOD U9_BUCK12_U12_N16783828
+  BUF_DELAY_BASIC_GEN PARAMS: VDD=1 VSS=0 VTHRESH=0.5 DELAY=30n
X_U9_BUCK12_U12_U622         U9_BUCK12_U12_D1 U9_BUCK12_U12_D2
+  U9_BUCK12_U12_PG_DELAY AND2_BASIC_GEN PARAMS: VDD=1 VSS=0 VTHRESH=500E-3
C_U9_BUCK12_U12_C1         0 U9_BUCK12_U12_N16647378  1n  TC=0,0 
I_U9_BUCK12_U12_I1         U9_BUCK12_U12_N16803565 U9_BUCK12_U12_N16800540 DC
+  25uAdc  
G_U9_BUCK12_U12_ABMII1         0 RDELAY VALUE { if(V(U9_BUCK12_U12_N16615680) >
+  0.5, -40u, 40u)    }
X_U9_BUCK12_U12_S1    U9_BUCK12_U12_N16817225 0 RDELAY U9_BUCK12_U12_N16795485
+  DLYAB_OSC_U9_BUCK12_U12_S1 
D_U9_BUCK12_U12_D13         U9_BUCK12_U12_N16647378 U9_BUCK12_U12_N16786288
+  D_D1 
V_U9_BUCK12_U12_V7         U9_BUCK12_U12_N16800633 0 0.5
V_U9_BUCK12_U12_V2         U9_BUCK12_U12_N16795485 0 0.8
V_U9_BUCK12_U12_V8         U9_BUCK12_U12_N16803565 0 1
X_U9_BUCK12_U12_S4    U9_BUCK12_U12_PG_TR 0 U9_BUCK12_U12_N16800540 0
+  DLYAB_OSC_U9_BUCK12_U12_S4 
X_U9_BUCK12_U12_U619         U9_BUCK12_U12_N16647378 U9_BUCK12_U12_N16647524
+  U9_BUCK12_U12_D1 COMP_BASIC_GEN PARAMS: VDD=1 VSS=0 VTHRESH=0.5
X_U9_BUCK12_U6         VSENSEX U9_BUCK12_N16784615 U9_BUCK12_PGOOD
+  COMP_BASIC_GEN PARAMS: VDD=1 VSS=0 VTHRESH=0.5
E_U9_BUCK12_ABM4         U9_BUCK12_N167846331 0 VALUE {
+  ((V(U9_BUCK12_PGOOD)*-16m) + 0.76)    }
V_V47         SET0 0 0Vdc
V_U4_BUCK12_V70         U4_BUCK12_N7397990 0 1.7
C_U4_BUCK12_C15         0 U4_BUCK12_N7398492  100n  
D_U4_BUCK12_D62         SSX U4_BUCK12_N7397990 D_D1 
V_U4_BUCK12_V72         U4_BUCK12_N7406021 0 -0.1mVdc
X_U4_BUCK12_U825         SDWN OCB U4_BUCK12_N16637584 U4_BUCK12_N16639089
+  OR3_BASIC_GEN PARAMS: VDD=1 VSS=0 VTHRESH=500E-3
G_U4_BUCK12_ABMII1         U4_BUCK12_N7397990 SSX VALUE { 
+ {IF(V(U4_BUCK12_N16572832) > 0.5,1u,0)}    }
X_U4_BUCK12_U827         HICCUP_N U4_BUCK12_N16637245 U4_BUCK12_N16572832
+  AND2_BASIC_GEN PARAMS: VDD=1 VSS=0 VTHRESH=500E-3
X_U4_BUCK12_S68    U4_BUCK12_N7398492 0 SSX U4_BUCK12_N7406021
+  SoftStart_U4_BUCK12_S68 
D_U4_BUCK12_D63         0 SSX D_D1 
R_U4_BUCK12_R14         U4_BUCK12_N16569567 VREF_GM  1  
X_U4_BUCK12_U1         SDWN U4_BUCK12_N16637245 INV_BASIC_GEN PARAMS: VDD=1
+  VSS=0 VTHRESH=500E-3
X_U4_BUCK12_U2         HICCUP_N U4_BUCK12_N16637584 INV_BASIC_GEN PARAMS: VDD=1
+  VSS=0 VTHRESH=500E-3
G_U4_BUCK12_ABMI5         SSX 0 VALUE { {IF(V(SS_DISCH) > 2.5, 1.25e-3,0)}    }
R_U4_BUCK12_R15         U4_BUCK12_N16639089 U4_BUCK12_N7398492  1  
C_U4_BUCK12_C8         0 SSX  0.1p  
E_U4_BUCK12_ABM178         U4_BUCK12_N16569567 0 VALUE { IF(V(SSX) < 0.8,
+  V(SSX),0.8)    }
C_U4_BUCK12_C14         0 VREF_GM  1n  
E_U5_BUCK12_ABM9         U5_BUCK12_N7407271 0 VALUE {
+  LIMIT((-0.9912*V(VSENSEX)*V(VSENSEX) + 1.4354*V(VSENSEX) + 1.0359), 1.55,
+  1.3004)    }
V_U5_BUCK12_V5         U5_BUCK12_N7407325 0 0.65
R_U5_BUCK12_R12         U5_BUCK12_N7406885 OCB  1  
C_U5_BUCK12_C11         0 OCB  1n  
E_U5_BUCK12_ABM8         U5_BUCK12_N7406885 0 VALUE { {IF(V(COMPX) > 2.5,5,0)} 
+    }
D_U5_BUCK12_D10         COMPX U5_BUCK12_N7407271 D_D 
D_U5_BUCK12_D9         U5_BUCK12_N7407325 COMPX D_D 
E_U5_BUCK12_E1         U5_BUCK12_N16554534 0 VREF_GM VSENSEX 1
G_U5_BUCK12_ABM2I1         0 COMPX VALUE { (V(U5_BUCK12_N16554534) - V(0))*1m  
+   }
R_U5_BUCK12_R4         U5_BUCK12_N165463111 COMPX  10MEG  
V_U5_BUCK12_V6         U5_BUCK12_N165463111 0 0Vdc
X_U10_BUCK12_U615         U10_BUCK12_N16787685 U10_BUCK12_N16788511
+  INV_BASIC_GEN PARAMS: VDD=1 VSS=0 VTHRESH=500E-3
X_U10_BUCK12_U800         U10_BUCK12_N16856386 U10_BUCK12_SW_OFF_B
+  U10_BUCK12_LPM_B U10_BUCK12_LPM_B U10_BUCK12_N16994649 OR4_BASIC_GEN PARAMS:
+  VDD=1 VSS=0 VTHRESH=500E-3
C_U10_BUCK12_C3         0 U10_BUCK12_LPM_EXIT_PULSE_COUNT  1n  TC=0,0 
X_U10_BUCK12_U640         LPM_TON U10_BUCK12_N16879332 BUF_DELAY_BASIC_GEN
+  PARAMS: VDD=1 VSS=0 VTHRESH=0.5 DELAY=40n
X_U10_BUCK12_U625         U10_BUCK12_RST_FF LPM U10_BUCK12_N16812883
+  AND2_BASIC_GEN PARAMS: VDD=1 VSS=0 VTHRESH=500E-3
V_U10_BUCK12_V3         U10_BUCK12_N16865887 0 0.7
X_U10_BUCK12_U616         LPM U10_BUCK12_LPM_B SET1 SET1 U10_BUCK12_N17004694
+  U10_BUCK12_LPM_EN_B DFFSBRB_RHPBASIC_GEN PARAMS: VDD=1 VSS=0 VTHRESH=500E-3
X_U10_BUCK12_U630         SDWN U10_BUCK12_N17002934 INV_BASIC_GEN PARAMS: VDD=1
+  VSS=0 VTHRESH=500E-3
X_U10_BUCK12_U799         U10_BUCK12_LPM_B U10_BUCK12_LPM_B
+  U10_BUCK12_N16847787 LPM_TON U10_BUCK12_N16847830 OR4_BASIC_GEN PARAMS: VDD=1
+  VSS=0 VTHRESH=500E-3
X_U10_BUCK12_U4         U10_BUCK12_N167798652 U10_BUCK12_SAM_PULSE one_shot_BUCK12
+  PARAMS:  T=10
X_U10_BUCK12_U644         U10_BUCK12_PH_POS LPM_TON U10_BUCK12_N16946255
+  OR2_BASIC_GEN PARAMS: VDD=1 VSS=0 VTHRESH=500E-3
X_U10_BUCK12_U636         U10_BUCK12_N16858036 U10_BUCK12_LPM_TON_TRIG
+  U10_BUCK12_LPM_EXIT AND2_BASIC_GEN PARAMS: VDD=1 VSS=0 VTHRESH=500E-3
X_U10_BUCK12_U629         LPM U10_BUCK12_N16812297 LPM_TON AND2_BASIC_GEN
+  PARAMS: VDD=1 VSS=0 VTHRESH=500E-3
X_U10_BUCK12_U8         U10_BUCK12_N16946255 U10_BUCK12_N16958954 one_shot_BUCK12
+  PARAMS:  T=20
X_U10_BUCK12_U614         HDRV U10_BUCK12_HDRV_B INV_BASIC_GEN PARAMS: VDD=1
+  VSS=0 VTHRESH=500E-3
V_U10_BUCK12_V1         U10_BUCK12_N16779880 0 0.4
X_U10_BUCK12_U641         U10_BUCK12_N16895132 U10_BUCK12_LPM_DUTY_CYCLE_SAMPLE
+  U10_BUCK12_N16895726 COMP_BASIC_GEN PARAMS: VDD=1 VSS=0 VTHRESH=0.5
X_U10_BUCK12_U6         LPM_TON U10_BUCK12_LPM_TON_TRIG one_shot_BUCK12 PARAMS:  T=10
V_U10_BUCK12_V4         U10_BUCK12_N16895132 0 0.8
X_U10_BUCK12_U620         U10_BUCK12_HDRV_B U10_BUCK12_PH_POS
+  U10_BUCK12_N16787685 AND2_BASIC_GEN PARAMS: VDD=1 VSS=0 VTHRESH=500E-3
C_U10_BUCK12_C1         0 U10_BUCK12_LPM_ENTRY_PULSE_COUNT  1n  TC=0,0 
E_U10_BUCK12_ABM1         U10_BUCK12_LPM_DUTY_CYCLE_SAMPLE 0 VALUE {
+  if(V(U10_BUCK12_LPM_TON_B) > 0.5,
+  (V(U10_BUCK12_TON_RAMP)/(V(U10_BUCK12_TON_RAMP) + V(U10_BUCK12_TOFF_RAMP) +
+  10n)), 0)    }
G_U10_BUCK12_ABMII1         0 U10_BUCK12_LPM_ENTRY_PULSE_COUNT VALUE {
+  (V(U10_BUCK12_N167850392)*1m)    }
X_U10_BUCK12_U626         SET1 U10_BUCK12_TON_TIMER U10_BUCK12_N16812297
+  COMP_BASIC_GEN PARAMS: VDD=1 VSS=0 VTHRESH=0.5
X_U10_BUCK12_U617         PHX 0 U10_BUCK12_PH_POS COMP_BASIC_GEN PARAMS: VDD=1
+  VSS=0 VTHRESH=0.5
X_U10_BUCK12_U632         U10_BUCK12_N16812297 U10_BUCK12_N16846443
+  U10_BUCK12_RST_FF OR2_BASIC_GEN PARAMS: VDD=1 VSS=0 VTHRESH=500E-3
X_U10_BUCK12_U634         U10_BUCK12_PH_POS U10_BUCK12_LPM_TON_B
+  U10_BUCK12_SW_OFF_B NAND2_BASIC_GEN PARAMS: VDD=1 VSS=0 VTHRESH=500E-3
E_U10_BUCK12_ABM2         U10_BUCK12_N16905578 0 VALUE {
+  if(V(U10_BUCK12_N16958954) > 0.5, V(U10_BUCK12_N16895726), 1)    }
X_U10_BUCK12_U623         LPM U10_BUCK12_N16788962 U10_BUCK12_RST_CNT
+  OR2_BASIC_GEN PARAMS: VDD=1 VSS=0 VTHRESH=500E-3
X_U10_BUCK12_S5    U10_BUCK12_N16884150 0 0 U10_BUCK12_TOFF_RAMP
+  Low_Power_Mode_U10_BUCK12_S5 
X_U10_BUCK12_U639         U10_BUCK12_N16869698 U10_BUCK12_LPM_B
+  U10_BUCK12_N16864895 OR2_BASIC_GEN PARAMS: VDD=1 VSS=0 VTHRESH=500E-3
X_U10_BUCK12_U613         U10_BUCK12_SW_OFF_B U10_BUCK12_N16856386
+  INV_DELAY_BASIC_GEN PARAMS: VDD=1 VSS=0 VTHRESH=0.5 DELAY=40n
X_U10_BUCK12_U627         VSENSEX VREF_GM U10_BUCK12_N16836260 COMP_BASIC_GEN
+  PARAMS: VDD=1 VSS=0 VTHRESH=0.5
X_U10_BUCK12_U612         U10_BUCK12_N16812297 U10_BUCK12_N16846443
+  INV_DELAY_BASIC_GEN PARAMS: VDD=1 VSS=0 VTHRESH=0.5 DELAY=50n
X_U10_BUCK12_U619         U10_BUCK12_N16785060 U10_BUCK12_LPM_ENTRY_PULSE_COUNT
+  U10_BUCK12_N16975719 COMP_BASIC_GEN PARAMS: VDD=1 VSS=0 VTHRESH=0.5
D_U10_BUCK12_D9         U10_BUCK12_TON_TIMER SET1 D_D 
X_U10_BUCK12_U624         U10_BUCK12_LPM_B U10_BUCK12_N16836260
+  U10_BUCK12_N16811884 OR2_BASIC_GEN PARAMS: VDD=1 VSS=0 VTHRESH=500E-3
X_U10_BUCK12_U645         U10_BUCK12_N17002934 U10_BUCK12_EXIT_LPM
+  U10_BUCK12_N17004694 AND2_BASIC_GEN PARAMS: VDD=1 VSS=0 VTHRESH=500E-3
C_U10_BUCK12_C2         0 U10_BUCK12_TON_TIMER  1n  TC=0,0 
X_U10_BUCK12_U5         U10_BUCK12_N16835202 U10_BUCK12_N16835079 one_shot_BUCK12
+  PARAMS:  T=20
X_U10_BUCK12_S4    U10_BUCK12_N16884150 0 0 U10_BUCK12_TON_RAMP
+  Low_Power_Mode_U10_BUCK12_S4 
G_U10_BUCK12_ABMII4         0 U10_BUCK12_TOFF_RAMP VALUE {
+  ((1-V(U10_BUCK12_N16946255))*0.1m)    }
X_U10_BUCK12_U622         U10_BUCK12_N16788511 U10_BUCK12_SAM_PULSE
+  U10_BUCK12_N16788962 AND2_BASIC_GEN PARAMS: VDD=1 VSS=0 VTHRESH=500E-3
V_U10_BUCK12_V2         U10_BUCK12_N16785060 0 2.28
X_U10_BUCK12_U642         CCM_EN U10_BUCK12_N16975719 U10_BUCK12_LPM_EN_B
+  OR2_BASIC_GEN PARAMS: VDD=1 VSS=0 VTHRESH=500E-3
X_U10_BUCK12_U628         U10_BUCK12_N16835202 N16810664 SET1 SET1
+  U10_BUCK12_N16812883 U10_BUCK12_N16811884 DFFSBRB_RHPBASIC_GEN PARAMS: VDD=1
+  VSS=0 VTHRESH=500E-3
X_U10_BUCK12_S1    U10_BUCK12_RST_CNT 0 U10_BUCK12_LPM_ENTRY_PULSE_COUNT 0
+  Low_Power_Mode_U10_BUCK12_S1 
X_U10_BUCK12_U621         U10_BUCK12_N16787685 U10_BUCK12_SAM_PULSE
+  U10_BUCK12_N167850392 AND2_BASIC_GEN PARAMS: VDD=1 VSS=0 VTHRESH=500E-3
G_U10_BUCK12_ABMII3         0 U10_BUCK12_TON_RAMP VALUE { (V(LPM_TON)*0.1m)   
+  }
X_U10_BUCK12_S2    U10_BUCK12_N16835079 0 U10_BUCK12_TON_TIMER 0
+  Low_Power_Mode_U10_BUCK12_S2 
C_U10_BUCK12_C4         0 U10_BUCK12_TON_RAMP  1n  TC=0,0 
C_U10_BUCK12_C5         0 U10_BUCK12_TOFF_RAMP  1n  TC=0,0 
X_U10_BUCK12_S3    U10_BUCK12_N16864895 0 U10_BUCK12_LPM_EXIT_PULSE_COUNT 0
+  Low_Power_Mode_U10_BUCK12_S3 
X_U10_BUCK12_U611         LPM_TON U10_BUCK12_N16847787 INV_DELAY_BASIC_GEN
+  PARAMS: VDD=1 VSS=0 VTHRESH=0.5 DELAY=40n
X_U10_BUCK12_U643         U10_BUCK12_N16900946 U10_BUCK12_N16905578
+  U10_BUCK12_EXIT_LPM AND2_BASIC_GEN PARAMS: VDD=1 VSS=0 VTHRESH=500E-3
X_U10_BUCK12_U633         LPM_TON U10_BUCK12_LPM_TON_B INV_BASIC_GEN PARAMS:
+  VDD=1 VSS=0 VTHRESH=500E-3
G_U10_BUCK12_ABM2I1         SET1 U10_BUCK12_TON_TIMER VALUE {
+  ((V(VIN_INT)-V(SX2))/9)*1m    }
X_U10_BUCK12_U637         U10_BUCK12_N16857856 U10_BUCK12_LPM_TON_TRIG
+  U10_BUCK12_N16869698 AND2_BASIC_GEN PARAMS: VDD=1 VSS=0 VTHRESH=500E-3
X_U10_BUCK12_U631         U10_BUCK12_N16858036 U10_BUCK12_N16857856 SET1 SET1
+  U10_BUCK12_N16994649 U10_BUCK12_N16847830 DFFSBRB_RHPBASIC_GEN PARAMS: VDD=1
+  VSS=0 VTHRESH=500E-3
X_U10_BUCK12_U638         U10_BUCK12_N16865887 U10_BUCK12_LPM_EXIT_PULSE_COUNT
+  U10_BUCK12_N16900946 COMP_BASIC_GEN PARAMS: VDD=1 VSS=0 VTHRESH=0.5
X_U10_BUCK12_U7         U10_BUCK12_N16879332 U10_BUCK12_N16884150 one_shot_BUCK12
+  PARAMS:  T=10
G_U10_BUCK12_ABMII2         0 U10_BUCK12_LPM_EXIT_PULSE_COUNT VALUE {
+  (V(U10_BUCK12_LPM_EXIT)*10m)    }
X_U10_BUCK12_U618         RAMP U10_BUCK12_N16779880 U10_BUCK12_N167798652
+  COMP_BASIC_GEN PARAMS: VDD=1 VSS=0 VTHRESH=0.5
V_V46         SET1 0 1
E_U20_BUCK12_ABM2         U20_BUCK12_N16655410 0 VALUE {
+  if(V(U20_BUCK12_N16653309) > V(U20_BUCK12_VSUP), V(U20_BUCK12_VSUP),
+  V(U20_BUCK12_N16653309))    }
E_U20_BUCK12_ABM1         U20_BUCK12_VSUP 0 VALUE { if(V(LPM)>0.5, V(VIN_INT), 
+  
+ if(V(EXTSUP_INT) < 4.6, V(VIN_INT), V(EXTSUP_INT)) )   }
E_U20_BUCK12_ABM3         U20_BUCK12_N16653309 0 VALUE { if(V(LPM)>0.5, 7.5,  
+ if(V(EXTSUP_INT) < 4.6, 5.8, 7.5) )   }
R_U20_BUCK12_R1         U20_BUCK12_N16655410 U20_BUCK12_N16655440  1  
E_U20_BUCK12_E1         VREG PGNDX U20_BUCK12_N16655440 0 1
C_U20_BUCK12_C1         0 U20_BUCK12_N16655440  1n  TC=0,0 
X_U12         SDWN LPM N16843075 OR2_BASIC_GEN PARAMS: VDD=1 VSS=0
+  VTHRESH=500E-3
R_R10         0 SYNC  100Meg  
X_U132         MAX_DUTY_CYCLE PWM_FINAL N16643373 AND2_BASIC_GEN PARAMS: VDD=1
+  VSS=0 VTHRESH=500E-3
X_U13         GPULL VIN gpull_diode PARAMS:
V_V50         N16649916 0 1Vdc
V_V49         N16649191 0 1.7Vdc
E_E3         EXTSUP_INT 0 EXTSUP PGNDX 1
R_R9         RSTX SX2  50k  
R_R11         0 GPULL  500k  
R_R6         PGNDX 0  1m  
E_E2         VIN_INT 0 VIN PGNDX 1
X_U7_BUCK12_U823         U7_BUCK12_N16497188 PWM_CLK U7_BUCK12_N16489522
+  AND2_BASIC_GEN PARAMS: VDD=1 VSS=0 VTHRESH=500E-3
R_U7_BUCK12_R272         U7_BUCK12_N16489522 U7_BUCK12_INDELAYED1  12.26k  
X_U7_BUCK12_U822         PWM_CLK U7_BUCK12_N16497188 INV_DELAY_BASIC_GEN
+  PARAMS: VDD=1 VSS=0 VTHRESH=0.5 DELAY=15n
X_U7_BUCK12_U824         U7_BUCK12_N16489522 U7_BUCK12_INDELAYED1 PWM_CLK
+  PWM_FINAL OR3_BASIC_GEN PARAMS: VDD=1 VSS=0 VTHRESH=500E-3
D_U7_BUCK12_D9         U7_BUCK12_N16489522 U7_BUCK12_INDELAYED1 D_D 
C_U7_BUCK12_C172         0 U7_BUCK12_INDELAYED1  10p  
X_U133         SYNC N16649191 N16649916 SYNC_D COMPHYS_BASIC_GEN PARAMS:  VDD=1
+  VSS=0 VTHRESH=0.5
E_E1         ISW 0 SX1 SX2 1
X_U11_BUCK12_U611         U11_BUCK12_N16778992 U11_BUCK12_OVLO
+  INV_DELAY_BASIC_GEN PARAMS: VDD=1 VSS=0 VTHRESH=0.5 DELAY=5u
X_U11_BUCK12_U137         U11_BUCK12_UVLO U11_BUCK12_OVLO U11_BUCK12_UOVLO
+  OR2_BASIC_GEN PARAMS: VDD=1 VSS=0 VTHRESH=500E-3
X_U11_BUCK12_U136         U11_BUCK12_N16496294 U11_BUCK12_UOVLO SDWN
+  OR2_BASIC_GEN PARAMS: VDD=1 VSS=0 VTHRESH=500E-3
V_U11_BUCK12_V66         U11_BUCK12_N16778983 0 2
C_U11_BUCK12_C163         U11_BUCK12_N6045130 U11_BUCK12_N6045136  140.5p  
X_U11_BUCK12_U828         U11_BUCK12_N16778935 VIN_INT U11_BUCK12_N16778983
+  U11_BUCK12_N16778992 COMPHYS_BASIC_GEN PARAMS:  VDD=1 VSS=0 VTHRESH=0.5
X_U11_BUCK12_U604         ENAB U11_BUCK12_N16496294 INV_BASIC_GEN PARAMS: VDD=1
+  VSS=0 VTHRESH=500E-3
V_U11_BUCK12_V67         U11_BUCK12_N16778935 0 44
E_U11_BUCK12_ABM173         SS_DISCH 0 VALUE { {IF(V(SSX)  < 54m,0,  
+ IF(V(U11_BUCK12_N6045136) > 0.5,1,0))}   }
V_U11_BUCK12_V65         U11_BUCK12_N16630658 0 0.2
X_U11_BUCK12_U603         SDWN U11_BUCK12_N6045130 INV_BASIC_GEN PARAMS: VDD=1
+  VSS=0 VTHRESH=500E-3
V_U11_BUCK12_V64         U11_BUCK12_N6045018 0 3.6
R_U11_BUCK12_R287         0 U11_BUCK12_N6045136  1k  
X_U11_BUCK12_U827         U11_BUCK12_N6045018 VIN_INT U11_BUCK12_N16630658
+  U11_BUCK12_UVLO COMPHYS_BASIC_GEN PARAMS:  VDD=1 VSS=0 VTHRESH=0.5
X_U8_BUCK12_U610         U8_BUCK12_HDRVIN U8_BUCK12_N16798848 INV_BASIC_GEN
+  PARAMS: VDD=1 VSS=0 VTHRESH=500E-3
D_U8_BUCK12_D13         U8_BUCK12_N16807532 GLX D_D 
X_U8_BUCK12_U604         U8_BUCK12_N16780028 N16643373 U8_BUCK12_HDRVIN
+  AND2_BASIC_GEN PARAMS: VDD=1 VSS=0 VTHRESH=500E-3
X_U8_BUCK12_U614         U8_BUCK12_N16798848 U8_BUCK12_SDWN_N LDRV_MASK
+  U8_BUCK12_LPM_B U8_BUCK12_N16784812 AND4_BASIC_GEN PARAMS: VDD=1 VSS=0
+  VTHRESH=500E-3
E_U8_BUCK12_ABM7         U8_BUCK12_N16789266 0 VALUE { if( V(HDRV) > 0.5,
+  V(BOOTX), V(PHX))    }
R_U8_BUCK12_R246         U8_BUCK12_N16789266 U8_BUCK12_GX1_INT  1  
I_U8_BUCK12_I3         GUX U8_BUCK12_N16804876 DC 0.6Adc  
C_U8_BUCK12_C2         0 U8_BUCK12_GX2_INT  1n  TC=0,0 
X_U8_BUCK12_U615         LPM U8_BUCK12_LPM_B INV_BASIC_GEN PARAMS: VDD=1 VSS=0
+  VTHRESH=500E-3
D_U8_BUCK12_D12         U8_BUCK12_N16804876 GUX D_D 
X_U8_BUCK12_U605         U8_BUCK12_HDRVIN U8_BUCK12_N16779393 INV_BASIC_GEN
+  PARAMS: VDD=1 VSS=0 VTHRESH=500E-3
C_U8_BUCK12_C1         0 U8_BUCK12_GX1_INT  1n  TC=0,0 
R_U8_BUCK12_R247         U8_BUCK12_N16792021 U8_BUCK12_GX2_INT  1  
R_U8_BUCK12_R245         PGNDX BOOTX  1G  
E_U8_BUCK12_ABM8         U8_BUCK12_N16792021 0 VALUE { if( V(LDRV) > 0.5,
+  V(VREG), V(PGNDX))    }
X_U8_BUCK12_U606         SDWN U8_BUCK12_SDWN_N INV_BASIC_GEN PARAMS: VDD=1
+  VSS=0 VTHRESH=500E-3
D_U8_BUCK12_D9         VREG BOOTX D_D 
X_U8_BUCK12_U613         SDWN U8_BUCK12_N16780028 INV_BASIC_GEN PARAMS: VDD=1
+  VSS=0 VTHRESH=500E-3
X_U8_BUCK12_U612         U8_BUCK12_N16784812 U8_BUCK12_N16784844
+  BUF_DELAY_BASIC_GEN PARAMS: VDD=1 VSS=0 VTHRESH=0.5 DELAY=18n
X_U8_BUCK12_U609         U8_BUCK12_N16784844 U8_BUCK12_N16784812 LDRV
+  AND2_BASIC_GEN PARAMS: VDD=1 VSS=0 VTHRESH=500E-3
E_U8_BUCK12_ABM6         HDRV 0 VALUE { if(V(LPM)>0.5,  
+ V(LPM_TON),V(U8_BUCK12_N16775555) )   }
X_U8_BUCK12_U607         U8_BUCK12_N16779393 ENAB U8_BUCK12_SDWN_N
+  U8_BUCK12_SDWN_N U8_BUCK12_BOOT_SW_ON AND4_BASIC_GEN PARAMS: VDD=1 VSS=0
+  VTHRESH=500E-3
D_U8_BUCK12_D10         U8_BUCK12_N16804876 U8_BUCK12_GX1_INT D_D 
X_U8_BUCK12_U611         U8_BUCK12_HDRVIN U8_BUCK12_N16774201
+  BUF_DELAY_BASIC_GEN PARAMS: VDD=1 VSS=0 VTHRESH=0.5 DELAY=20n
I_U8_BUCK12_I2         U8_BUCK12_GX2_INT U8_BUCK12_N16807532 DC 0.6Adc  
I_U8_BUCK12_I1         U8_BUCK12_GX1_INT U8_BUCK12_N16804876 DC 0.6Adc  
D_U8_BUCK12_D11         U8_BUCK12_N16807532 U8_BUCK12_GX2_INT D_D 
I_U8_BUCK12_I4         GLX U8_BUCK12_N16807532 DC 0.6Adc  
X_U8_BUCK12_U608         U8_BUCK12_HDRVIN U8_BUCK12_N16774201
+  U8_BUCK12_N16775555 AND2_BASIC_GEN PARAMS: VDD=1 VSS=0 VTHRESH=500E-3
R_R5         AGND 0  1m  
D_U2_BUCK12_U2_D1         U2_BUCK12_SYNC_CLK U2_BUCK12_U2_N16774364 D_D 
E_U2_BUCK12_U2_ABM1         SYNC_EN 0 VALUE { if(V(U2_BUCK12_U2_N16774364)
+  >0.50,1,0)    }
X_U2_BUCK12_U2_U1_U13         U2_BUCK12_N00141 U2_BUCK12_U2_U1_N572699
+  INV_DELAY_BASIC_GEN PARAMS: VDD=1 VSS=0 VTHRESH=0.5 DELAY=20n
X_U2_BUCK12_U2_U1_U8         U2_BUCK12_N00141 U2_BUCK12_U2_U1_N572699
+  U2_BUCK12_SYNC_CLK AND2_BASIC_GEN PARAMS: VDD=1 VSS=0 VTHRESH=500E-3
C_U2_BUCK12_U2_C3         0 U2_BUCK12_U2_N16774364  1n IC=0 TC=0,0 
R_U2_BUCK12_U2_R4         U2_BUCK12_U2_N16774364 U2_BUCK12_SYNC_CLK  10k TC=0,0
+  
X_U2_BUCK12_U1_U2         U2_BUCK12_RT_CLK U2_BUCK12_U1_EN BUF_DELAY_BASIC_GEN
+  PARAMS: VDD=1 VSS=0 VTHRESH=0.5 DELAY=20n
E_U2_BUCK12_U1_LIMIT1         U2_BUCK12_U1_RT_1 0 VALUE {LIMIT(V(RT),0,160)}
V_U2_BUCK12_U1_V1         U2_BUCK12_U1_N78882 0 1Vdc
C_U2_BUCK12_U1_C1         0 U2_BUCK12_RT_RAMP  1u IC=0 TC=0,0 
X_U2_BUCK12_U1_U1         U2_BUCK12_RT_RAMP U2_BUCK12_U1_N78882
+  U2_BUCK12_RT_CLK COMP_BASIC_GEN PARAMS: VDD=1 VSS=0 VTHRESH=0.5
X_U2_BUCK12_U1_U14         SYNC_EN U2_BUCK12_U1_EN U2_BUCK12_U1_N16778617
+  OR2_BASIC_GEN PARAMS: VDD=1 VSS=0 VTHRESH=500E-3
I_U2_BUCK12_U1_I1         RT 0 DC -1mAdc  
X_U2_BUCK12_U1_U15         N16843075 U2_BUCK12_U1_N16778617 U2_BUCK12_U1_EN_1
+  OR2_BASIC_GEN PARAMS: VDD=1 VSS=0 VTHRESH=500E-3
R_U2_BUCK12_U1_R3         0 RT  1G TC=0,0 
X_U2_BUCK12_U1_S1    U2_BUCK12_U1_EN_1 0 U2_BUCK12_RT_RAMP 0
+  RT_OSC_U2_BUCK12_U1_S1 
G_U2_BUCK12_U1_ABMII1         0 U2_BUCK12_RT_RAMP VALUE {
+  if(V(SYNC_EN)<0.5,if(V(U2_BUCK12_U1_RT_1)>1m,  
+ (24*1.011/V(U2_BUCK12_U1_RT_1)),0.4044),0)   }
X_U2_BUCK12_U5         SYNC_EN SYNC_D CCM_EN OR2_BASIC_GEN PARAMS: VDD=1 VSS=0
+  VTHRESH=500E-3
X_U2_BUCK12_U3_U11         N16843075 U2_BUCK12_U3_N16782296 INV_BASIC_GEN
+  PARAMS: VDD=1 VSS=0 VTHRESH=500E-3
X_U2_BUCK12_U3_U8         U2_BUCK12_U3_N16781845 U2_BUCK12_U3_N16782296
+  U2_BUCK12_U3_PEAK_EN AND2_BASIC_GEN PARAMS: VDD=1 VSS=0 VTHRESH=500E-3
E_U2_BUCK12_U3_ABM5         SYSCLK 0 VALUE { if(V(SYNC_EN)>0.5,  
+ V(U2_BUCK12_SYNC_CLK),V(U2_BUCK12_RT_CLK) )   }
X_U2_BUCK12_U3_U3         SYNC_EN U2_BUCK12_U3_N16780745 INV_DELAY_BASIC_GEN
+  PARAMS: VDD=1 VSS=0 VTHRESH=0.5 DELAY=100n
X_U2_BUCK12_U3_U2_U11         U2_BUCK12_U3_PEAK_EN
+  U2_BUCK12_U3_U2_RST_RAMP_PEAK INV_BASIC_GEN PARAMS: VDD=1 VSS=0 VTHRESH=500E-3
I_U2_BUCK12_U3_U2_I2         U2_BUCK12_U3_U2_SYNC_RAMP_1 0 DC -0.5Adc  
X_U2_BUCK12_U3_U2_S4    U2_BUCK12_U3_U2_RST_RAMP_PEAK 0 U2_BUCK12_U3_U2_PEAK 0
+  Pulse_Ramp_U2_BUCK12_U3_U2_S4 
E_U2_BUCK12_U3_U2_ABM4         RAMP 0 VALUE { if(V(U2_BUCK12_U3_U2_PEAK)>0.5,  
+ (V(U2_BUCK12_U3_U2_SYNC_RAMP_1)/V(U2_BUCK12_U3_U2_PEAK)),0)   }
E_U2_BUCK12_U3_U2_ABM3         U2_BUCK12_U3_U2_N167772811 0 VALUE {
+  V(U2_BUCK12_U3_U2_SYNC_RAMP_1)    }
X_U2_BUCK12_U3_U2_S3    SYSCLK 0 U2_BUCK12_U3_U2_SYNC_RAMP_1 0
+  Pulse_Ramp_U2_BUCK12_U3_U2_S3 
C_U2_BUCK12_U3_U2_C4         0 U2_BUCK12_U3_U2_PEAK  1n IC=0 TC=0,0 
R_U2_BUCK12_U3_U2_R6         U2_BUCK12_U3_U2_N167742661
+  U2_BUCK12_U3_U2_N167772811  10 TC=0,0 
D_U2_BUCK12_U3_U2_D2         U2_BUCK12_U3_U2_N167742661 U2_BUCK12_U3_U2_PEAK
+  D_D 
D_U2_BUCK12_U3_U2_D3         U2_BUCK12_U3_U2_SYNC_RAMP_1
+  U2_BUCK12_U3_U2_N16770568 D_D 
C_U2_BUCK12_U3_U2_C2         0 U2_BUCK12_U3_U2_SYNC_RAMP_1  1u IC=0 TC=0,0 
V_U2_BUCK12_U3_U2_V3         U2_BUCK12_U3_U2_N16770568 0 5Vdc
X_U2_BUCK12_U3_U2_S5    U2_BUCK12_U3_U2_RST_RAMP_PEAK 0
+  U2_BUCK12_U3_U2_SYNC_RAMP_1 0 Pulse_Ramp_U2_BUCK12_U3_U2_S5 
X_U2_BUCK12_U3_U621         U2_BUCK12_U3_N16780745 SYNC_EN
+  U2_BUCK12_U3_N16781845 XOR2_BASIC_GEN PARAMS: VDD=1 VSS=0 VTHRESH=500E-3
X_U2_BUCK12_U6         SYNC_D N16843075 U2_BUCK12_N00141 OR2_BASIC_GEN PARAMS:
+  VDD=1 VSS=0 VTHRESH=500E-3
E_Slope_Compensation_BUCK12_ABM4         Slope_Compensation_BUCK12_N16681601 0
+  VALUE { MAX(5.7*(V(RAMP))**2 -0.09*(V(RAMP)) - 0.02,0)    }
E_Slope_Compensation_BUCK12_ABM1         ISLOPE 0 VALUE {
+  V(Slope_Compensation_BUCK12_N16681601)*V(VIN_INT)/1k    }
X_U131         N16642713 RAMP MAX_DUTY_CYCLE COMP_BASIC_GEN PARAMS: VDD=1 VSS=0
+  VTHRESH=0.5
V_U6_BUCK12_V86         U6_BUCK12_VALLEY_ILIMIT 0 1Vdc
X_U6_BUCK12_U617         ISW U6_BUCK12_N16878232 U6_BUCK12_LSTI COMP_BASIC_GEN
+  PARAMS: VDD=1 VSS=0 VTHRESH=0.5
X_U6_BUCK12_U608         N16559015 U6_BUCK12_N16559133 U6_BUCK12_N16560525 SET1
+  U6_BUCK12_N16558784 U6_BUCK12_SDWN_N DFFSBRB_RHPBASIC_GEN PARAMS: VDD=1 VSS=0
+  VTHRESH=500E-3
E_U6_BUCK12_ABM164         U6_BUCK12_ICTRL 0 VALUE { LIMIT(0.125*V(COMPX) -
+  0.11875, -37.5m, 75m) - V(ISLOPE)    }
V_U6_BUCK12_V80         U6_BUCK12_N16552171 0 6.2
X_U6_BUCK12_U604         U6_BUCK12_N16552171 ISW U6_BUCK12_CBC_ILIMT
+  COMP_BASIC_GEN PARAMS: VDD=1 VSS=0 VTHRESH=0.5
X_U6_BUCK12_U620         U6_BUCK12_N16577763 U6_BUCK12_VALLEY_ILIMIT
+  U6_BUCK12_N16580393 HICCUP_N U6_BUCK12_N16875154 AND4_BASIC_GEN PARAMS: VDD=1
+  VSS=0 VTHRESH=500E-3
X_U6_BUCK12_U609         SDWN U6_BUCK12_N16556945 U6_BUCK12_PBIAS N16557147
+  SRLATCHRHP_BASIC_GEN PARAMS: VDD=1 VSS=0 VTHRESH=0.5
E_U6_BUCK12_ABM165         U6_BUCK12_N16884901 0 VALUE { if( V(CCM_EN) > 0.5, 
+  -10 , 1m)    }
X_U6_BUCK12_U614         SDWN U6_BUCK12_SDWN_N INV_BASIC_GEN PARAMS: VDD=1
+  VSS=0 VTHRESH=500E-3
X_U6_BUCK12_U611         HDRV U6_BUCK12_N16558784 INV_BASIC_GEN PARAMS: VDD=1
+  VSS=0 VTHRESH=500E-3
X_U6_BUCK12_U616         U6_BUCK12_SYSCLK_N U6_BUCK12_SDWN_N
+  U6_BUCK12_N16566345 AND2_BASIC_GEN PARAMS: VDD=1 VSS=0 VTHRESH=500E-3
X_U6_BUCK12_U610         SSX VSENSEX U6_BUCK12_N16556945 COMP_BASIC_GEN PARAMS:
+  VDD=1 VSS=0 VTHRESH=0.5
X_U6_BUCK12_U605         U6_BUCK12_N16522994 U6_BUCK12_OVTP U6_BUCK12_OVTP
+  U6_BUCK12_CBC_ILIMT U6_BUCK12_N16577763 AND4_BASIC_GEN PARAMS: VDD=1 VSS=0
+  VTHRESH=500E-3
X_U6_BUCK12_U612         LDRV U6_BUCK12_N16562380 INV_BASIC_GEN PARAMS: VDD=1
+  VSS=0 VTHRESH=500E-3
R_U6_BUCK12_R257         U6_BUCK12_N16884901 U6_BUCK12_N16878232  1  
V_U6_BUCK12_V87         U6_BUCK12_N16882009 0 0
V_U6_BUCK12_V84         U6_BUCK12_N16582213 0 0.25
X_U6_BUCK12_U621         U6_BUCK12_N16881337 U6_BUCK12_N16882009 LDRV_MASK
+  OR2_BASIC_GEN PARAMS: VDD=1 VSS=0 VTHRESH=500E-3
C_U6_BUCK12_C148         0 U6_BUCK12_N16878232  1n  
X_U6_BUCK12_U615         N16566065 U6_BUCK12_N16566204 0 SET1
+  U6_BUCK12_N16566345 U6_BUCK12_LSTI DFFSBRB_RHPBASIC_GEN PARAMS: VDD=1 VSS=0
+  VTHRESH=500E-3
X_U6_BUCK12_U600         U6_BUCK12_ICTRL ISW U6_BUCK12_N16522994 COMP_BASIC_GEN
+  PARAMS: VDD=1 VSS=0 VTHRESH=0.5
X_U6_BUCK12_U603         PWM_CLK N16528816 SYSCLK SET1 U6_BUCK12_N16875154 SET1
+  DFFSBRB_RHPBASIC_GEN PARAMS: VDD=1 VSS=0 VTHRESH=500E-3
V_U6_BUCK12_V85         HICCUP_N 0 1Vdc
X_U6_BUCK12_U606         COMPX U6_BUCK12_N16582213 U6_BUCK12_N16580393
+  COMP_BASIC_GEN PARAMS: VDD=1 VSS=0 VTHRESH=0.5
X_U6_BUCK12_U601         U6_BUCK12_N16489001 VSENSEX U6_BUCK12_OVTP
+  COMP_BASIC_GEN PARAMS: VDD=1 VSS=0 VTHRESH=0.5
X_U6_BUCK12_U613         U6_BUCK12_N16562380 U6_BUCK12_PBIAS
+  U6_BUCK12_N16560525 AND2_BASIC_GEN PARAMS: VDD=1 VSS=0 VTHRESH=500E-3
V_U6_BUCK12_V79         U6_BUCK12_N16489001 0 0.872
X_U6_BUCK12_U619         SYSCLK U6_BUCK12_SYSCLK_N INV_BASIC_GEN PARAMS: VDD=1
+  VSS=0 VTHRESH=500E-3
X_U6_BUCK12_U618         U6_BUCK12_N16566204 U6_BUCK12_N16559133
+  U6_BUCK12_N16881337 AND2_BASIC_GEN PARAMS: VDD=1 VSS=0 VTHRESH=500E-3
X_U1_BUCK12_U828         U1_BUCK12_N16636530 ENX U1_BUCK12_N16632710
+  U1_BUCK12_N16636677 COMPHYS_BASIC_GEN PARAMS:  VDD=1 VSS=0 VTHRESH=0.5
G_U1_BUCK12_ABMII1         VIN_INT ENX VALUE { 
+ {0.5u*(1-V(U1_BUCK12_N16632234))}    }
D_U1_BUCK12_D9         ENX VIN_INT D_D1 
V_U1_BUCK12_V65         U1_BUCK12_N16631004 0 0.2
V_U1_BUCK12_V67         U1_BUCK12_N16632710 0 1
C_U1_BUCK12_C1         0 ENAB  1n  
V_U1_BUCK12_V64         U1_BUCK12_N16630902 0 3.6
X_U1_BUCK12_U619         U1_BUCK12_N16636677 U1_BUCK12_N16636620 INV_BASIC_GEN
+  PARAMS: VDD=1 VSS=0 VTHRESH=500E-3
R_U1_BUCK12_R1         U1_BUCK12_N16636620 ENAB  1  
X_U1_BUCK12_U827         U1_BUCK12_N16630902 VIN_INT U1_BUCK12_N16631004
+  U1_BUCK12_N16632234 COMPHYS_BASIC_GEN PARAMS:  VDD=1 VSS=0 VTHRESH=0.5
V_U1_BUCK12_V66         U1_BUCK12_N16636530 0 0.7
V_V48         N16642713 0 0.9875
.IC         V(U9_BUCK12_U12_N16647378 )=2.2
.IC         V(RDELAY )=0.8
.IC         V(U9_BUCK12_U12_N16800540 )=1
.IC         V(SSX )=0
.model D_D1 d
+ is=1e-015
+ tt=1e-011
+ rs=0.05
+ n=0.1
.model D_D d
+ is=1e-015
+ n=0.01
+ tt=1e-011
.ENDS TPS43340-Q1_BUCK1_TRANS
*$
*TPS43340-Q1
*****************************************************************************
* (C) Copyright 2013 Texas Instruments Incorporated. All rights reserved.                                            
*****************************************************************************
** This model is designed as an aid for customers of Texas Instruments.
** TI and its licensors and suppliers make no warranties, either expressed
** or implied, with respect to this model, including the warranties of 
** merchantability or fitness for a particular purpose.  The model is
** provided solely on an "as is" basis.  The entire risk as to its quality
** and performance is with the customer
*****************************************************************************
*
* This model is subject to change without notice. Texas Instruments
* Incorporated is not responsible for updating this model.
*
*****************************************************************************
*
** Released by: WEBENCH Design Center, Texas Instruments Inc.
* Part: TPS43340-Q1
* Date: 19APR2013
* Model Type: TRANSIENT
* Simulator: PSPICE