*$
* TPS4H000B-Q1
*****************************************************************************
*  (C) Copyright 2016 Texas Instruments Incorporated. All rights reserved.
*****************************************************************************
** This model is designed as an aid for customers of Texas Instruments.
** TI and its licensors and suppliers make no warranties, either expressed
** or implied, with respect to this model, including the warranties of 
** merchantability or fitness for a particular purpose.  The model is
** provided solely on an "as is" basis.  The entire risk as to its quality
** and performance is with the customer
*****************************************************************************
*
** Released by: WEBENCH Design Center, Texas Instruments Inc.
* Part: TPS4H000B-Q1
* Date: 17JUN2016
* Model Type: Transient
* Simulator: PSPICE
* Simulator Version: 16.2.0.p001
* EVM Order Number: 
* EVM User's Guide:  
* Datasheet: Preliminary Draft Only Nov 2015 Rev 0.4
*
* Model Version: Final 1.00
*
*****************************************************************************
*
* Updates:
*
* Final 1.00
* Release to Web.
*
*****************************************************************************
*
* Model Usage Notes:
*
* A. Features have been modelled
*	1. Switching characteristics
*	2. Programmable current limit with external resistor 
*	3. Short circuit/Over load protection
*	4. Inductive load negative voltage clamp
*	5. Overload and short to ground detection
*	6. Open load/short to battery detection during off state 
*	7. High accurate Current Sense with external resistor
*
* B. Features haven't been modelled
*	1. Temperature dependent characteristics
*   2. Leakage and reverse current characteristics 
*	3. Ground pin is tied to 0V internally hence this model cannot be used in inverting topology
*
*****************************************************************************
.SUBCKT TPS4H000B_Q1_TRANS FAULTB DIAG_EN IN1 IN2 IN3 IN4 CL CS OUT1 OUT2 OUT3 OUT4
+ SEH SEL VS1 VS2 NC1 NC2 THER PAD GND
X_U16         CNTRA N16842747 INV_BASIC_GEN PARAMS: VDD=1 VSS=0 VTHRESH=500E-3
X_U26         N16842747 N16842845 CH3 AND2_BASIC_GEN PARAMS: VDD=1 VSS=0
+  VTHRESH=500E-3
X_U21         N16842747 N16842769 INV_BASIC_GEN PARAMS: VDD=1 VSS=0
+  VTHRESH=500E-3
X_S5    CH4 0 CS4 CS TPS4H000B-Q1_S5 
X_U27         N16842769 N16842845 CH4 AND2_BASIC_GEN PARAMS: VDD=1 VSS=0
+  VTHRESH=500E-3
X_U22         CNTRB N16842771 INV_BASIC_GEN PARAMS: VDD=1 VSS=0 VTHRESH=500E-3
R_U3_U3_R3         U3_U3_N17205516 U3_U3_N17205493  500 TC=0,0 
E_U3_U3_ABM2         U3_U3_N17205516 0 VALUE { IF(V(U3_U3_N17205525)>0.5 &
+  V(U3_U3_GATE)<1.407,1.2u,0)    }
X_U3_U3_U21         U3_U3_N17205457 OUT3 d_d
G_U3_U3_G2         U3_U3_N17205460 U3_U3_GATE U3_U3_N17205493 0 10
E_U3_U3_ABM8         U3_U3_N17205777 0 VALUE { IF(V(U3_VCL_TH)
+  >1.5*V(CH3_VCL),1,0)    }
X_U3_U3_H1    VS1 U3_U3_N17360276 U3_I_SENSE 0 DRIVER1_U3_U3_H1 
X_U3_U3_U11         U3_SWEN U3_U3_N17205525 one_shot PARAMS:  T=60000  
X_U3_U3_U20         U3_U3_GATE U3_U3_N17288546 d_d
X_U3_U3_U6         U3_U3_N17205777 U3_U3_FASTTRIP one_shot PARAMS:  T=500  
E_U3_U3_E2         U3_U3_FT_GAIN 0 TABLE { V(U3_I_SENSE, 0) } 
+ ( (0,0) (0.1,20) (0.5, 15) (1,6) (1.2,5) )
M_U3_U3_M1         U3_U3_N17260058 U3_U3_GATE OUT3 OUT3 NMOS01           
V_U3_U3_V20         U3_U3_N17205460 0 5
X_U3_U3_U15         U3_U3_N17206064 U3_U3_N17205595 one_shot PARAMS:  T=40000  
R_U3_U3_R9         U3_U3_N17260058 U3_U3_N17360835  450m TC=0,0 
X_U3_U3_F1    U3_U3_N17360276 U3_U3_N17360835 VS1 U3_VCL_TH DRIVER1_U3_U3_F1 
X_U3_U3_U24         U3_U3_N17205595 U3_U3_N17205916 INV_BASIC_GEN PARAMS: VDD=1
+  VSS=0 VTHRESH=500E-3
V_U3_U3_V16         U3_U3_N17288546 VS1 4.5
X_U3_U3_U23         U3_SWEN U3_U3_N17206064 INV_BASIC_GEN PARAMS: VDD=1 VSS=0
+  VTHRESH=500E-3
G_U3_U3_ABM2I10         U3_U3_GATE 0 VALUE {
+  IF(V(U3_U3_N17205595)-V(0)>0.5,12.5u,0)    }
R_U3_U3_R10         U3_VCL_TH 0  6k TC=0,0 
E_U3_U3_ABM1         U3_U3_N17205441 0 VALUE { IF(V(U3_SWEN)>0.5,0.45u,0)    }
R_U3_U3_R2         U3_U3_N17205441 U3_U3_N17205795  1 TC=0,0 
X_U3_U3_U22         OUT3 U3_U3_N17260058 d_d
G_U3_U3_ABM2I5         U3_U3_GATE 0 VALUE {
+  IF(V(U3_U3_FASTTRIP)-V(0)>0.5,V(U3_U3_FT_GAIN)*1m,0)    }
G_U3_U3_G1         U3_U3_N17205436 U3_U3_GATE U3_U3_N17205795 0 10
G_U3_U3_ABM2I4         U3_U3_GATE 0 VALUE {
+  LIMIT((V(U3_VCL_TH)-V(CH3_VCL))*V(U3_U3_V_GAIN),0,100u)    }
X_U3_U3_U14         U3_U3_N17205916 U3_U3_N17205669 one_shot PARAMS:  T=50000  
R_U3_U3_R8         U3_U3_GATE OUT3  840k TC=0,0 
C_U3_U3_Cgs         U3_U3_GATE OUT3  380p TC=0,0 
E_U3_U3_E1         U3_U3_V_GAIN 0 TABLE { V(U3_I_SENSE, 0) } 
+ ( (0.1,16m) (0.5,12m) (0.7,10m) (1.2,10m) )
V_U3_U3_V14         VS1 U3_U3_N17205457 55
G_U3_U3_ABM2I1         U3_U3_GATE 0 VALUE {
+  IF(V(U3_U3_N17205669)-V(0)>0.5,0.6u,0)    }
V_U3_U3_V19         U3_U3_N17205436 0 5
C_U3_U3_C5         U3_U3_N17205493 0  1.3n TC=0,0 
C_U3_U3_C6         U3_U3_N17205795 0  1u TC=0,0 
I_U3_U2_I1         0 U3_U2_N16798871 DC 2.777uAdc  
X_U3_U2_S1    U3_U2_CL_FLAG3 0 U3_U2_N16798871 0 CL_CS_FAULT3_U3_U2_S1 
R_U3_U2_R5         U3_U2_N09479 CS3  10m TC=0,0 
X_U3_U2_U26         U3_U2_N16805341 U3_U2_OL_OFF_PU U3_U2_N11781 STB3
+  OR3_BASIC_GEN PARAMS: VDD=1 VSS=0 VTHRESH=500E-3
X_U3_U2_U15         U3_U2_OL_OFF_PU U3_U2_CL_FLAG3 U3_U2_PULL_UP OR2_BASIC_GEN
+  PARAMS: VDD=1 VSS=0 VTHRESH=500E-3
X_U3_U2_U18         U3_U2_N14040 U3_U2_N13984 INV_BASIC_GEN PARAMS: VDD=1 VSS=0
+  VTHRESH=500E-3
X_U3_U2_U22         U3_U2_N16798871 U3_U2_N16798830 d_d
X_U3_U2_U14         U3_DIAG_EN_OK U3_U2_N13972 INV_BASIC_GEN PARAMS: VDD=1
+  VSS=0 VTHRESH=500E-3
E_U3_U2_ABM3         U3_U2_OL_OFF_PU 0 VALUE { IF(V(U3_U2_N16805333)>0.5,1,0)  
+   }
E_U3_U2_ABM4         U3_U2_N16798570 0 VALUE { V(VS1)  
+ -V(OUT3)    }
E_U3_U2_ABM8         U3_U2_N14040 0 VALUE { IF(V(U3_U2_N13950)>0.5,1,0)    }
X_U3_U2_U25         0 U3_U2_N16798871 d_d
X_U3_U2_U8         U3_U2_COMP U3_U2_N15804 U3_U2_N11781 N16798961
+  srlatchrhp_basic_gen PARAMS: VDD=1 VSS=0 VTHRESH=0.5
X_U3_U2_U12         U3_IN_OK U3_U2_N16798563 INV_BASIC_GEN PARAMS: VDD=1 VSS=0
+  VTHRESH=500E-3
X_U3_U2_U16         U3_U2_N14078 U3_U2_N13984 U3_U2_PULL_DOWN OR2_BASIC_GEN
+  PARAMS: VDD=1 VSS=0 VTHRESH=500E-3
R_U3_U2_R7         U3_U2_OL_OFF U3_U2_N16805333  738.82 TC=0,0 
X_U3_U2_U1         U3_U2_N16798871 U3_U2_N16798907 U3_U2_COMP COMP_BASIC_GEN
+  PARAMS: VDD=1 VSS=0 VTHRESH=0.5
R_U3_U2_R3         U3_IN_OK U3_U2_N16798985  216 TC=0,0 
G_U3_U2_ABMII1         U3_U2_N09491 CS3 VALUE {
+  IF(V(U3_U2_CS_SETTLE)>0.5,V(U3_U2_N09517),0)    }
E_U3_U2_ABM1         U3_U2_N09517 0 VALUE { V(U3_I_SENSE)/80    }
C_U3_U2_C3         0 U3_U2_N14012  1u IC=0 TC=0,0 
X_U3_U2_U7         U3_U2_VOL_OFF U3_U2_N16798570 U3_U2_N16799575 COMP_BASIC_GEN
+  PARAMS: VDD=1 VSS=0 VTHRESH=0.5
C_U3_U2_C6         0 U3_U2_N16805333  1u IC=0 TC=0,0 
R_U3_U2_R6         U3_IN_OK U3_U2_N13950  72 TC=0,0 
V_U3_U2_V1         U3_U2_N16798907 0 0.5
C_U3_U2_C1         U3_U2_N16798871 0  1n  TC=0,0 
R_U3_U2_R4         U3_U2_N13972 U3_U2_N14012  14.43 TC=0,0 
V_U3_U2_V5         U3_U2_N09491 0 5
E_U3_U2_ABM5         U3_U2_CS_SETTLE 0 VALUE { IF(V(U3_U2_N16798985)>0.5,1,0)  
+   }
X_U3_U2_U17         U3_U2_CL_FLAG3 U3_U2_N15804 INV_BASIC_GEN PARAMS: VDD=1
+  VSS=0 VTHRESH=500E-3
E_U3_U2_ABM6         U3_U2_N14078 0 VALUE { IF(V(U3_U2_N14012)>0.5,1,0)    }
V_U3_U2_V2         U3_U2_N16798830 0 1
X_U3_U2_U11         U3_U2_N16799575 U3_U2_N16798563 U3_U2_OL_OFF AND2_BASIC_GEN
+  PARAMS: VDD=1 VSS=0 VTHRESH=500E-3
X_U3_U2_U23         U3_DIAG_EN_OK U3_U2_N16805341 INV_BASIC_GEN PARAMS: VDD=1
+  VSS=0 VTHRESH=500E-3
X_U3_U2_U21         U3_U2_N16805333 U3_U2_OL_OFF d_d
V_U3_U2_V12         U3_U2_VCS_H 0 5.52
C_U3_U2_C5         0 U3_U2_N13950  1u IC=0 TC=0,0 
V_U3_U2_V11         U3_U2_VOL_OFF 0 1.8
X_U3_U2_U5         U3_VCL_TH CH3_VCL U3_U2_CL_FLAG3 COMP_BASIC_GEN PARAMS:
+  VDD=1 VSS=0 VTHRESH=0.5
E_U3_U2_ABM11         U3_U2_N09479 0 VALUE { IF(V(U3_U2_PULL_UP)>0.5,
+  5.52,IF(V(U3_U2_PULL_DOWN)>0.5,0,V(CS3)))    }
C_U3_U2_C2         0 U3_U2_N16798985  1u IC=0 TC=0,0 
X_U3_U2_U20         CS3 U3_U2_VCS_H d_d
X_U3_U1_U3         U3_U1_VS_OK U3_IN_OK U3_U1_N16780788 AND2_BASIC_GEN PARAMS:
+  VDD=1 VSS=0 VTHRESH=500E-3
R_U3_U1_R1         IN3 0  175k TC=0,0 
R_U3_U1_R5         U3_U1_N16780788 U3_SWEN  10 TC=0,0 
R_U3_U1_R3         U3_U1_N19376 U3_U1_N29577  1 TC=0,0 
C_U3_U1_C2         0 U3_U1_N29577  1n  TC=0,0 
C_U3_U1_C3         U3_SWEN 0  1n  TC=0,0 
X_U3_U1_U1         VS1 U3_U1_VUVR U3_U1_N167782823 U3_U1_VS_OK
+  COMPHYS_BASIC_GEN PARAMS: VDD=1 VSS=0 VTHRESH=0.5
E_U3_U1_ABM2         U3_DIAG_EN_OK 0 VALUE { IF(V(U3_U1_N29577)>0.5,1,0)    }
V_U3_U1_Vuv_hys         U3_U1_N167782823 0 0.5
V_U3_U1_V2         U3_U1_VUVR 0 3.7
R_U3_U1_R4         DIAG_EN 0  275k TC=0,0 
X_U3_U1_U2         IN3 U3_U1_N16778379 U3_U1_N167783383 U3_IN_OK
+  COMPHYS_BASIC_GEN PARAMS: VDD=1 VSS=0 VTHRESH=0.5
V_U3_U1_V3         U3_U1_N167783383 0 250m
X_U3_U1_U4         DIAG_EN U3_U1_N19306 U3_U1_N192183 U3_U1_N19376
+  COMPHYS_BASIC_GEN PARAMS: VDD=1 VSS=0 VTHRESH=0.5
V_U3_U1_V4         U3_U1_N16778379 0 2
V_U3_U1_V5         U3_U1_N192183 0 250m
V_U3_U1_V6         U3_U1_N19306 0 2
X_S1    CH1 0 CS1 CS TPS4H000B-Q1_S1 
X_U23         N16842771 N16842845 INV_BASIC_GEN PARAMS: VDD=1 VSS=0
+  VTHRESH=500E-3
R_R2         GND 0  1m TC=0,0 
R_R4         THER 0  1m TC=0,0 
X_U1_U2_F2    U1_U2_5VDC U1_U2_N16942046 U1_U2_5VDC U1_U2_N16941762
+  CL_CS_FAULT1_U1_U2_F2 
V_U1_U2_V2         U1_U2_N16938439 0 1
R_U1_U2_R10         CH3_VCL 0  6k TC=0,0 
X_U1_U2_U16         U1_U2_N16914621 U1_U2_N16913640 U1_U2_PULL_DOWN
+  OR2_BASIC_GEN PARAMS: VDD=1 VSS=0 VTHRESH=500E-3
E_U1_U2_ABM3         U1_U2_OL_OFF_PU 0 VALUE { IF(V(U1_U2_N16914532)>0.5,1,0)  
+   }
X_U1_U2_S1    U1_U2_CL_FLAG1 0 U1_U2_N16938469 0 CL_CS_FAULT1_U1_U2_S1 
X_U1_U2_F1    U1_U2_N16942105 CL U1_U2_N16942101 0 CL_CS_FAULT1_U1_U2_F1 
X_U1_U2_U23         U1_DIAG_EN_OK U1_U2_N16914600 INV_BASIC_GEN PARAMS: VDD=1
+  VSS=0 VTHRESH=500E-3
V_U1_U2_V13         U1_U2_5VDC 0 5Vdc
G_U1_U2_G3         0 CH3_VCL U1_U2_N16941588 0 1
X_U1_U2_U15         U1_U2_OL_OFF_PU U1_U2_CL_FLAG1 U1_U2_PULL_UP OR2_BASIC_GEN
+  PARAMS: VDD=1 VSS=0 VTHRESH=500E-3
C_U1_U2_C1         U1_U2_N16938469 0  1n  TC=0,0 
V_U1_U2_V10         U1_U2_VCL_REF 0 0.8Vdc
R_U1_U2_R7         U1_U2_OL_OFF U1_U2_N16914532  738.8 TC=0,0 
R_U1_U2_R8         U1_CH1_VCL 0  6k TC=0,0 
R_U1_U2_Rsource         U1_U2_N16942105 U1_U2_VCL_REF  1u TC=0,0 
X_U1_U2_U1         U1_U2_N16938469 U1_U2_N16938494 U1_U2_COMP COMP_BASIC_GEN
+  PARAMS: VDD=1 VSS=0 VTHRESH=0.5
X_U1_U2_U21         U1_U2_N16914532 U1_U2_OL_OFF d_d
X_U1_U2_H4    U1_U2_N16941625 0 U1_U2_N16941664 0 CL_CS_FAULT1_U1_U2_H4 
G_U1_U2_G1         0 U1_CH1_VCL U1_U2_N16941875 0 1
V_U1_U2_V1         U1_U2_N16938494 0 0.5
R_U1_U2_R3         U1_IN_OK U1_U2_N16913992  216 TC=0,0 
C_U1_U2_C2         0 U1_U2_N16913992  1u IC=0 TC=0,0 
X_U1_U2_U26         U1_U2_N16914600 U1_U2_OL_OFF_PU U1_U2_N16914700 STB1
+  OR3_BASIC_GEN PARAMS: VDD=1 VSS=0 VTHRESH=500E-3
E_U1_U2_ABM15         U1_U2_N16941701 0 VALUE { LIMIT(V(U1_U2_N16941664), 0,
+  30u)    }
E_U1_U2_ABM5         U1_U2_CS_SETTLE 0 VALUE { IF(V(U1_U2_N16913992)>0.5,1,0)  
+   }
X_U1_U2_F5    U1_U2_N16941759 U1_U2_N16942101 U1_U2_5VDC U1_U2_N16941625
+  CL_CS_FAULT1_U1_U2_F5 
X_U1_U2_U20         CS1 U1_U2_VCS_H d_d
X_U1_U2_H2    U1_U2_N16941916 0 U1_U2_N16941951 0 CL_CS_FAULT1_U1_U2_H2 
E_U1_U2_ABM1         U1_U2_N16914526 0 VALUE { V(U1_I_SENSE)/80    }
X_U1_U2_U17         U1_U2_CL_FLAG1 U1_U2_N16938573 INV_BASIC_GEN PARAMS: VDD=1
+  VSS=0 VTHRESH=500E-3
X_U1_U2_U18         U1_U2_N16914477 U1_U2_N16913640 INV_BASIC_GEN PARAMS: VDD=1
+  VSS=0 VTHRESH=500E-3
X_U1_U2_U12         U1_IN_OK U1_U2_N16913567 INV_BASIC_GEN PARAMS: VDD=1 VSS=0
+  VTHRESH=500E-3
V_U1_U2_V12         U1_U2_VCS_H 0 5.52
G_U1_U2_ABMII1         U1_U2_N16913638 CS1 VALUE {
+  IF(V(U1_U2_CS_SETTLE)>0.5,V(U1_U2_N16914526),0)    }
I_U1_U2_I1         0 U1_U2_N16938469 DC 2.777uAdc  
X_U1_U2_U14         U1_DIAG_EN_OK U1_U2_N16913580 INV_BASIC_GEN PARAMS: VDD=1
+  VSS=0 VTHRESH=500E-3
E_U1_U2_ABM13         U1_U2_N16941988 0 VALUE { LIMIT(V(U1_U2_N16941951), 0,
+  30u)    }
X_U1_U2_U11         U1_U2_N16914743 U1_U2_N16913567 U1_U2_OL_OFF AND2_BASIC_GEN
+  PARAMS: VDD=1 VSS=0 VTHRESH=500E-3
E_U1_U2_ABM8         U1_U2_N16914477 0 VALUE { IF(V(U1_U2_N16913606)>0.5,1,0)  
+   }
R_U1_U2_R11         CH4_VCL 0  6k TC=0,0 
R_U1_U2_R5         U1_U2_N16931838 CS1  10m TC=0,0 
X_U1_U2_F3    U1_U2_N16942046 U1_U2_N16941586 U1_U2_5VDC U1_U2_N16941916
+  CL_CS_FAULT1_U1_U2_F3 
X_U1_U2_U22         U1_U2_N16938469 U1_U2_N16938439 d_d
V_U1_U2_V11         U1_U2_VOL_OFF 0 1.8
E_U1_U2_ABM11         U1_U2_N16931838 0 VALUE { IF(V(U1_U2_PULL_UP)>0.5,
+  5.52,IF(V(U1_U2_PULL_DOWN)>0.5,0,V(CS1)))    }
X_U1_U2_U25         0 U1_U2_N16938469 d_d
V_U1_U2_V5         U1_U2_N16913638 0 5
G_U1_U2_G4         0 CH4_VCL U1_U2_N16941701 0 1
X_U1_U2_H3    U1_U2_N16941497 0 U1_U2_N16941532 0 CL_CS_FAULT1_U1_U2_H3 
X_U1_U2_U5         U1_VCL_TH U1_CH1_VCL U1_U2_CL_FLAG1 COMP_BASIC_GEN PARAMS:
+  VDD=1 VSS=0 VTHRESH=0.5
C_U1_U2_C6         0 U1_U2_N16914532  1u IC=0 TC=0,0 
X_U1_U2_U7         U1_U2_VOL_OFF U1_U2_N16913574 U1_U2_N16914743 COMP_BASIC_GEN
+  PARAMS: VDD=1 VSS=0 VTHRESH=0.5
R_U1_U2_R9         CH2_VCL 0  6k TC=0,0 
X_U1_U2_H1    U1_U2_N16941762 0 U1_U2_N16941797 0 CL_CS_FAULT1_U1_U2_H1 
E_U1_U2_ABM14         U1_U2_N16941588 0 VALUE { LIMIT(V(U1_U2_N16941532), 0,
+  30u)    }
R_U1_U2_R6         U1_IN_OK U1_U2_N16913606  72 TC=0,0 
G_U1_U2_G2         0 CH2_VCL U1_U2_N16941988 0 1
X_U1_U2_F4    U1_U2_N16941586 U1_U2_N16941759 U1_U2_5VDC U1_U2_N16941497
+  CL_CS_FAULT1_U1_U2_F4 
R_U1_U2_R4         U1_U2_N16913580 U1_U2_N16913988  14.43 TC=0,0 
X_U1_U2_U8         U1_U2_COMP U1_U2_N16938573 U1_U2_N16914700 N16938556
+  srlatchrhp_basic_gen PARAMS: VDD=1 VSS=0 VTHRESH=0.5
C_U1_U2_C5         0 U1_U2_N16913606  1u IC=0 TC=0,0 
E_U1_U2_ABM12         U1_U2_N16941875 0 VALUE { LIMIT(V(U1_U2_N16941797), 0,
+  30u)    }
C_U1_U2_C3         0 U1_U2_N16913988  1u IC=0 TC=0,0 
E_U1_U2_ABM4         U1_U2_N16913574 0 VALUE { V(VS1)  
+ -V(OUT1)    }
E_U1_U2_ABM6         U1_U2_N16914621 0 VALUE { IF(V(U1_U2_N16913988)>0.5,1,0)  
+   }
R_U1_U3_R3         U1_U3_N17205516 U1_U3_N17205493  500 TC=0,0 
E_U1_U3_ABM2         U1_U3_N17205516 0 VALUE { IF(V(U1_U3_N17205525)>0.5 &
+  V(U1_U3_GATE)<1.407,1.2u,0)    }
X_U1_U3_U21         U1_U3_N17205457 OUT1 d_d
G_U1_U3_G2         U1_U3_N17205460 U1_U3_GATE U1_U3_N17205493 0 10
E_U1_U3_ABM8         U1_U3_N17205777 0 VALUE { IF(V(U1_VCL_TH)
+  >1.5*V(U1_CH1_VCL),1,0)    }
X_U1_U3_H1    VS1 U1_U3_N17360276 U1_I_SENSE 0 DRIVER1_U1_U3_H1 
X_U1_U3_U11         U1_SWEN U1_U3_N17205525 one_shot PARAMS:  T=60000  
X_U1_U3_U20         U1_U3_GATE U1_U3_N17288546 d_d
X_U1_U3_U6         U1_U3_N17205777 U1_U3_FASTTRIP one_shot PARAMS:  T=500  
E_U1_U3_E2         U1_U3_FT_GAIN 0 TABLE { V(U1_I_SENSE, 0) } 
+ ( (0,0) (0.1,20) (0.5, 15) (1,6) (1.2,5) )
M_U1_U3_M1         U1_U3_N17260058 U1_U3_GATE OUT1 OUT1 NMOS01           
V_U1_U3_V20         U1_U3_N17205460 0 5
X_U1_U3_U15         U1_U3_N17206064 U1_U3_N17205595 one_shot PARAMS:  T=40000  
R_U1_U3_R9         U1_U3_N17260058 U1_U3_N17360835  450m TC=0,0 
X_U1_U3_F1    U1_U3_N17360276 U1_U3_N17360835 VS1 U1_VCL_TH DRIVER1_U1_U3_F1 
X_U1_U3_U24         U1_U3_N17205595 U1_U3_N17205916 INV_BASIC_GEN PARAMS: VDD=1
+  VSS=0 VTHRESH=500E-3
V_U1_U3_V16         U1_U3_N17288546 VS1 4.5
X_U1_U3_U23         U1_SWEN U1_U3_N17206064 INV_BASIC_GEN PARAMS: VDD=1 VSS=0
+  VTHRESH=500E-3
G_U1_U3_ABM2I10         U1_U3_GATE 0 VALUE {
+  IF(V(U1_U3_N17205595)-V(0)>0.5,12.5u,0)    }
R_U1_U3_R10         U1_VCL_TH 0  6k TC=0,0 
E_U1_U3_ABM1         U1_U3_N17205441 0 VALUE { IF(V(U1_SWEN)>0.5,0.45u,0)    }
R_U1_U3_R2         U1_U3_N17205441 U1_U3_N17205795  1 TC=0,0 
X_U1_U3_U22         OUT1 U1_U3_N17260058 d_d
G_U1_U3_ABM2I5         U1_U3_GATE 0 VALUE {
+  IF(V(U1_U3_FASTTRIP)-V(0)>0.5,V(U1_U3_FT_GAIN)*1m,0)    }
G_U1_U3_G1         U1_U3_N17205436 U1_U3_GATE U1_U3_N17205795 0 10
G_U1_U3_ABM2I4         U1_U3_GATE 0 VALUE {
+  LIMIT((V(U1_VCL_TH)-V(U1_CH1_VCL))*V(U1_U3_V_GAIN),0,100u)    }
X_U1_U3_U14         U1_U3_N17205916 U1_U3_N17205669 one_shot PARAMS:  T=50000  
R_U1_U3_R8         U1_U3_GATE OUT1  840k TC=0,0 
C_U1_U3_Cgs         U1_U3_GATE OUT1  380p TC=0,0 
E_U1_U3_E1         U1_U3_V_GAIN 0 TABLE { V(U1_I_SENSE, 0) } 
+ ( (0.1,16m) (0.5,12m) (0.7,10m) (1.2,10m) )
V_U1_U3_V14         VS1 U1_U3_N17205457 55
G_U1_U3_ABM2I1         U1_U3_GATE 0 VALUE {
+  IF(V(U1_U3_N17205669)-V(0)>0.5,0.6u,0)    }
V_U1_U3_V19         U1_U3_N17205436 0 5
C_U1_U3_C5         U1_U3_N17205493 0  1.3n TC=0,0 
C_U1_U3_C6         U1_U3_N17205795 0  1u TC=0,0 
X_U1_U1_U3         U1_U1_VS_OK U1_IN_OK U1_U1_N16780788 AND2_BASIC_GEN PARAMS:
+  VDD=1 VSS=0 VTHRESH=500E-3
R_U1_U1_R1         IN1 0  175k TC=0,0 
R_U1_U1_R5         U1_U1_N16780788 U1_SWEN  10 TC=0,0 
R_U1_U1_R3         U1_U1_N19376 U1_U1_N29577  1 TC=0,0 
C_U1_U1_C2         0 U1_U1_N29577  1n  TC=0,0 
C_U1_U1_C3         U1_SWEN 0  1n  TC=0,0 
X_U1_U1_U1         VS1 U1_U1_VUVR U1_U1_N167782823 U1_U1_VS_OK
+  COMPHYS_BASIC_GEN PARAMS: VDD=1 VSS=0 VTHRESH=0.5
E_U1_U1_ABM2         U1_DIAG_EN_OK 0 VALUE { IF(V(U1_U1_N29577)>0.5,1,0)    }
V_U1_U1_Vuv_hys         U1_U1_N167782823 0 0.5
V_U1_U1_V2         U1_U1_VUVR 0 3.7
R_U1_U1_R4         DIAG_EN 0  275k TC=0,0 
X_U1_U1_U2         IN1 U1_U1_N16778379 U1_U1_N167783383 U1_IN_OK
+  COMPHYS_BASIC_GEN PARAMS: VDD=1 VSS=0 VTHRESH=0.5
V_U1_U1_V3         U1_U1_N167783383 0 250m
X_U1_U1_U4         DIAG_EN U1_U1_N19306 U1_U1_N192183 U1_U1_N19376
+  COMPHYS_BASIC_GEN PARAMS: VDD=1 VSS=0 VTHRESH=0.5
V_U1_U1_V4         U1_U1_N16778379 0 2
V_U1_U1_V5         U1_U1_N192183 0 250m
V_U1_U1_V6         U1_U1_N19306 0 2
X_S3    N16842578 0 FAULTB 0 TPS4H000B-Q1_S3 
X_S4    CH3 0 CS3 CS TPS4H000B-Q1_S4 
X_U28         STB1 STB2 STB3 STB4 N16842578 OR4_BASIC_GEN PARAMS: VDD=1 VSS=0
+  VTHRESH=500E-3
R_R7         N16842886 N16842876  72 TC=0,0 
R_R3         NC1 0  1m TC=0,0 
R_U2_U3_R3         U2_U3_N17205516 U2_U3_N17205493  500 TC=0,0 
E_U2_U3_ABM2         U2_U3_N17205516 0 VALUE { IF(V(U2_U3_N17205525)>0.5 &
+  V(U2_U3_GATE)<1.407,1.2u,0)    }
X_U2_U3_U21         U2_U3_N17205457 OUT2 d_d
G_U2_U3_G2         U2_U3_N17205460 U2_U3_GATE U2_U3_N17205493 0 10
E_U2_U3_ABM8         U2_U3_N17205777 0 VALUE { IF(V(U2_VCL_TH)
+  >1.5*V(CH2_VCL),1,0)    }
X_U2_U3_H1    VS1 U2_U3_N17360276 U2_I_SENSE 0 DRIVER1_U2_U3_H1 
X_U2_U3_U11         U2_SWEN U2_U3_N17205525 one_shot PARAMS:  T=60000  
X_U2_U3_U20         U2_U3_GATE U2_U3_N17288546 d_d
X_U2_U3_U6         U2_U3_N17205777 U2_U3_FASTTRIP one_shot PARAMS:  T=500  
E_U2_U3_E2         U2_U3_FT_GAIN 0 TABLE { V(U2_I_SENSE, 0) } 
+ ( (0,0) (0.1,20) (0.5, 15) (1,6) (1.2,5) )
M_U2_U3_M1         U2_U3_N17260058 U2_U3_GATE OUT2 OUT2 NMOS01           
V_U2_U3_V20         U2_U3_N17205460 0 5
X_U2_U3_U15         U2_U3_N17206064 U2_U3_N17205595 one_shot PARAMS:  T=40000  
R_U2_U3_R9         U2_U3_N17260058 U2_U3_N17360835  450m TC=0,0 
X_U2_U3_F1    U2_U3_N17360276 U2_U3_N17360835 VS1 U2_VCL_TH DRIVER1_U2_U3_F1 
X_U2_U3_U24         U2_U3_N17205595 U2_U3_N17205916 INV_BASIC_GEN PARAMS: VDD=1
+  VSS=0 VTHRESH=500E-3
V_U2_U3_V16         U2_U3_N17288546 VS1 4.5
X_U2_U3_U23         U2_SWEN U2_U3_N17206064 INV_BASIC_GEN PARAMS: VDD=1 VSS=0
+  VTHRESH=500E-3
G_U2_U3_ABM2I10         U2_U3_GATE 0 VALUE {
+  IF(V(U2_U3_N17205595)-V(0)>0.5,12.5u,0)    }
R_U2_U3_R10         U2_VCL_TH 0  6k TC=0,0 
E_U2_U3_ABM1         U2_U3_N17205441 0 VALUE { IF(V(U2_SWEN)>0.5,0.45u,0)    }
R_U2_U3_R2         U2_U3_N17205441 U2_U3_N17205795  1 TC=0,0 
X_U2_U3_U22         OUT2 U2_U3_N17260058 d_d
G_U2_U3_ABM2I5         U2_U3_GATE 0 VALUE {
+  IF(V(U2_U3_FASTTRIP)-V(0)>0.5,V(U2_U3_FT_GAIN)*1m,0)    }
G_U2_U3_G1         U2_U3_N17205436 U2_U3_GATE U2_U3_N17205795 0 10
G_U2_U3_ABM2I4         U2_U3_GATE 0 VALUE {
+  LIMIT((V(U2_VCL_TH)-V(CH2_VCL))*V(U2_U3_V_GAIN),0,100u)    }
X_U2_U3_U14         U2_U3_N17205916 U2_U3_N17205669 one_shot PARAMS:  T=50000  
R_U2_U3_R8         U2_U3_GATE OUT2  840k TC=0,0 
C_U2_U3_Cgs         U2_U3_GATE OUT2  380p TC=0,0 
E_U2_U3_E1         U2_U3_V_GAIN 0 TABLE { V(U2_I_SENSE, 0) } 
+ ( (0.1,16m) (0.5,12m) (0.7,10m) (1.2,10m) )
V_U2_U3_V14         VS1 U2_U3_N17205457 55
G_U2_U3_ABM2I1         U2_U3_GATE 0 VALUE {
+  IF(V(U2_U3_N17205669)-V(0)>0.5,0.6u,0)    }
V_U2_U3_V19         U2_U3_N17205436 0 5
C_U2_U3_C5         U2_U3_N17205493 0  1.3n TC=0,0 
C_U2_U3_C6         U2_U3_N17205795 0  1u TC=0,0 
X_U2_U1_U3         U2_U1_VS_OK U2_IN_OK U2_U1_N16780788 AND2_BASIC_GEN PARAMS:
+  VDD=1 VSS=0 VTHRESH=500E-3
R_U2_U1_R1         IN2 0  175k TC=0,0 
R_U2_U1_R5         U2_U1_N16780788 U2_SWEN  10 TC=0,0 
R_U2_U1_R3         U2_U1_N19376 U2_U1_N29577  1 TC=0,0 
C_U2_U1_C2         0 U2_U1_N29577  1n  TC=0,0 
C_U2_U1_C3         U2_SWEN 0  1n  TC=0,0 
X_U2_U1_U1         VS1 U2_U1_VUVR U2_U1_N167782823 U2_U1_VS_OK
+  COMPHYS_BASIC_GEN PARAMS: VDD=1 VSS=0 VTHRESH=0.5
E_U2_U1_ABM2         U2_DIAG_EN_OK 0 VALUE { IF(V(U2_U1_N29577)>0.5,1,0)    }
V_U2_U1_Vuv_hys         U2_U1_N167782823 0 0.5
V_U2_U1_V2         U2_U1_VUVR 0 3.7
R_U2_U1_R4         DIAG_EN 0  275k TC=0,0 
X_U2_U1_U2         IN2 U2_U1_N16778379 U2_U1_N167783383 U2_IN_OK
+  COMPHYS_BASIC_GEN PARAMS: VDD=1 VSS=0 VTHRESH=0.5
V_U2_U1_V3         U2_U1_N167783383 0 250m
X_U2_U1_U4         DIAG_EN U2_U1_N19306 U2_U1_N192183 U2_U1_N19376
+  COMPHYS_BASIC_GEN PARAMS: VDD=1 VSS=0 VTHRESH=0.5
V_U2_U1_V4         U2_U1_N16778379 0 2
V_U2_U1_V5         U2_U1_N192183 0 250m
V_U2_U1_V6         U2_U1_N19306 0 2
R_U2_U2_R6         U2_IN_OK U2_U2_N16249  72 TC=0,0 
X_U2_U2_S1    U2_U2_CL_FLAG2 0 U2_U2_N17237 0 CL_CS_FAULT2_U2_U2_S1 
G_U2_U2_ABMII1         U2_U2_N17115 CS2 VALUE {
+  IF(V(U2_U2_CS_SETTLE)>0.5,V(U2_U2_N17135),0)    }
C_U2_U2_C6         0 U2_U2_N16673  1u IC=0 TC=0,0 
E_U2_U2_ABM1         U2_U2_N17135 0 VALUE { V(U2_I_SENSE)/80    }
R_U2_U2_R4         U2_U2_N16287 U2_U2_N16351  14.43 TC=0,0 
X_U2_U2_U22         U2_U2_N17237 U2_U2_N16625 d_d
X_U2_U2_U21         U2_U2_N16673 U2_U2_OL_OFF d_d
E_U2_U2_ABM6         U2_U2_N16491 0 VALUE { IF(V(U2_U2_N16351)>0.5,1,0)    }
V_U2_U2_V1         U2_U2_N17267 0 0.5
I_U2_U2_I1         0 U2_U2_N17237 DC 2.777uAdc  
E_U2_U2_ABM4         U2_U2_N17191 0 VALUE { V(VS1)  
+ -V(OUT2)    }
V_U2_U2_V5         U2_U2_N17115 0 5
E_U2_U2_ABM3         U2_U2_OL_OFF_PU 0 VALUE { IF(V(U2_U2_N16673)>0.5,1,0)    }
X_U2_U2_U1         U2_U2_N17237 U2_U2_N17267 U2_U2_COMP COMP_BASIC_GEN PARAMS:
+  VDD=1 VSS=0 VTHRESH=0.5
X_U2_U2_U26         U2_U2_N16677 U2_U2_OL_OFF_PU U2_U2_N16753 STB2
+  OR3_BASIC_GEN PARAMS: VDD=1 VSS=0 VTHRESH=500E-3
E_U2_U2_ABM5         U2_U2_CS_SETTLE 0 VALUE { IF(V(U2_U2_N17343)>0.5,1,0)    }
X_U2_U2_U25         0 U2_U2_N17237 d_d
X_U2_U2_U18         U2_U2_N16417 U2_U2_N16329 INV_BASIC_GEN PARAMS: VDD=1 VSS=0
+  VTHRESH=500E-3
V_U2_U2_V12         U2_U2_VCS_H 0 5.52
R_U2_U2_R7         U2_U2_OL_OFF U2_U2_N16673  738.82 TC=0,0 
C_U2_U2_C5         0 U2_U2_N16249  1u IC=0 TC=0,0 
X_U2_U2_U14         U2_DIAG_EN_OK U2_U2_N16287 INV_BASIC_GEN PARAMS: VDD=1
+  VSS=0 VTHRESH=500E-3
X_U2_U2_U23         U2_DIAG_EN_OK U2_U2_N16677 INV_BASIC_GEN PARAMS: VDD=1
+  VSS=0 VTHRESH=500E-3
E_U2_U2_ABM11         U2_U2_N17103 0 VALUE { IF(V(U2_U2_PULL_UP)>0.5,
+  5.52,IF(V(U2_U2_PULL_DOWN)>0.5,0,V(CS2)))    }
X_U2_U2_U7         U2_U2_VOL_OFF U2_U2_N17191 U2_U2_N17417 COMP_BASIC_GEN
+  PARAMS: VDD=1 VSS=0 VTHRESH=0.5
X_U2_U2_U15         U2_U2_OL_OFF_PU U2_U2_CL_FLAG2 U2_U2_PULL_UP OR2_BASIC_GEN
+  PARAMS: VDD=1 VSS=0 VTHRESH=500E-3
E_U2_U2_ABM8         U2_U2_N16417 0 VALUE { IF(V(U2_U2_N16249)>0.5,1,0)    }
X_U2_U2_U20         CS2 U2_U2_VCS_H d_d
C_U2_U2_C1         U2_U2_N17237 0  1n  TC=0,0 
X_U2_U2_U16         U2_U2_N16491 U2_U2_N16329 U2_U2_PULL_DOWN OR2_BASIC_GEN
+  PARAMS: VDD=1 VSS=0 VTHRESH=500E-3
X_U2_U2_U8         U2_U2_COMP U2_U2_N17339 U2_U2_N16753 N17321
+  srlatchrhp_basic_gen PARAMS: VDD=1 VSS=0 VTHRESH=0.5
R_U2_U2_R5         U2_U2_N17103 CS2  10m TC=0,0 
X_U2_U2_U11         U2_U2_N17417 U2_U2_N17185 U2_U2_OL_OFF AND2_BASIC_GEN
+  PARAMS: VDD=1 VSS=0 VTHRESH=500E-3
X_U2_U2_U17         U2_U2_CL_FLAG2 U2_U2_N17339 INV_BASIC_GEN PARAMS: VDD=1
+  VSS=0 VTHRESH=500E-3
X_U2_U2_U5         U2_VCL_TH CH2_VCL U2_U2_CL_FLAG2 COMP_BASIC_GEN PARAMS:
+  VDD=1 VSS=0 VTHRESH=0.5
V_U2_U2_V11         U2_U2_VOL_OFF 0 1.8
V_U2_U2_V2         U2_U2_N16625 0 1
X_U2_U2_U12         U2_IN_OK U2_U2_N17185 INV_BASIC_GEN PARAMS: VDD=1 VSS=0
+  VTHRESH=500E-3
R_U2_U2_R3         U2_IN_OK U2_U2_N17343  216 TC=0,0 
C_U2_U2_C2         0 U2_U2_N17343  1u IC=0 TC=0,0 
C_U2_U2_C3         0 U2_U2_N16351  1u IC=0 TC=0,0 
R_R6         N16842668 N16842658  72 TC=0,0 
C_C6         0 N16842876  1u IC=0 TC=0,0 
X_U4_U2_U26         U4_U2_N19727 U4_U2_OL_OFF_PU U4_U2_N19803 STB4
+  OR3_BASIC_GEN PARAMS: VDD=1 VSS=0 VTHRESH=500E-3
E_U4_U2_ABM5         U4_U2_CS_SETTLE 0 VALUE { IF(V(U4_U2_N20393)>0.5,1,0)    }
X_U4_U2_U25         0 U4_U2_N20287 d_d
X_U4_U2_U18         U4_U2_N19467 U4_U2_N19379 INV_BASIC_GEN PARAMS: VDD=1 VSS=0
+  VTHRESH=500E-3
V_U4_U2_V12         U4_U2_VCS_H 0 5.52
R_U4_U2_R7         U4_U2_OL_OFF U4_U2_N19723  738.82 TC=0,0 
C_U4_U2_C5         0 U4_U2_N19299  1u IC=0 TC=0,0 
X_U4_U2_U14         U4_DIAG_EN_OK U4_U2_N19329 INV_BASIC_GEN PARAMS: VDD=1
+  VSS=0 VTHRESH=500E-3
X_U4_U2_U23         U4_DIAG_EN_OK U4_U2_N19727 INV_BASIC_GEN PARAMS: VDD=1
+  VSS=0 VTHRESH=500E-3
E_U4_U2_ABM11         U4_U2_N20153 0 VALUE { IF(V(U4_U2_PULL_UP)>0.5,
+  5.52,IF(V(U4_U2_PULL_DOWN)>0.5,0,V(CS4)))    }
X_U4_U2_U7         U4_U2_VOL_OFF U4_U2_N20241 U4_U2_N20467 COMP_BASIC_GEN
+  PARAMS: VDD=1 VSS=0 VTHRESH=0.5
X_U4_U2_U15         U4_U2_OL_OFF_PU U4_U2_CL_FLAG4 U4_U2_PULL_UP OR2_BASIC_GEN
+  PARAMS: VDD=1 VSS=0 VTHRESH=500E-3
E_U4_U2_ABM8         U4_U2_N19467 0 VALUE { IF(V(U4_U2_N19299)>0.5,1,0)    }
X_U4_U2_U20         CS4 U4_U2_VCS_H d_d
C_U4_U2_C1         U4_U2_N20287 0  1n  TC=0,0 
X_U4_U2_U16         U4_U2_N19541 U4_U2_N19379 U4_U2_PULL_DOWN OR2_BASIC_GEN
+  PARAMS: VDD=1 VSS=0 VTHRESH=500E-3
X_U4_U2_U8         U4_U2_COMP U4_U2_N20389 U4_U2_N19803 N20371
+  srlatchrhp_basic_gen PARAMS: VDD=1 VSS=0 VTHRESH=0.5
R_U4_U2_R5         U4_U2_N20153 CS4  10m TC=0,0 
X_U4_U2_U11         U4_U2_N20467 U4_U2_N20235 U4_U2_OL_OFF AND2_BASIC_GEN
+  PARAMS: VDD=1 VSS=0 VTHRESH=500E-3
X_U4_U2_U17         U4_U2_CL_FLAG4 U4_U2_N20389 INV_BASIC_GEN PARAMS: VDD=1
+  VSS=0 VTHRESH=500E-3
X_U4_U2_U5         U4_VCL_TH CH4_VCL U4_U2_CL_FLAG4 COMP_BASIC_GEN PARAMS:
+  VDD=1 VSS=0 VTHRESH=0.5
V_U4_U2_V11         U4_U2_VOL_OFF 0 1.8
V_U4_U2_V2         U4_U2_N19675 0 1
X_U4_U2_U12         U4_IN_OK U4_U2_N20235 INV_BASIC_GEN PARAMS: VDD=1 VSS=0
+  VTHRESH=500E-3
C_U4_U2_C2         0 U4_U2_N20393  1u IC=0 TC=0,0 
R_U4_U2_R3         U4_IN_OK U4_U2_N20393  216 TC=0,0 
C_U4_U2_C3         0 U4_U2_N19395  1u IC=0 TC=0,0 
R_U4_U2_R6         U4_IN_OK U4_U2_N19299  72 TC=0,0 
X_U4_U2_S1    U4_U2_CL_FLAG4 0 U4_U2_N20287 0 CL_CS_FAULT4_U4_U2_S1 
G_U4_U2_ABMII1         U4_U2_N20159 CS4 VALUE {
+  IF(V(U4_U2_CS_SETTLE)>0.5,V(U4_U2_N20185),0)    }
C_U4_U2_C6         0 U4_U2_N19723  1u IC=0 TC=0,0 
E_U4_U2_ABM1         U4_U2_N20185 0 VALUE { V(U4_I_SENSE)/80    }
R_U4_U2_R4         U4_U2_N19329 U4_U2_N19395  14.43 TC=0,0 
X_U4_U2_U22         U4_U2_N20287 U4_U2_N19675 d_d
X_U4_U2_U21         U4_U2_N19723 U4_U2_OL_OFF d_d
V_U4_U2_V1         U4_U2_N20317 0 0.5
E_U4_U2_ABM6         U4_U2_N19541 0 VALUE { IF(V(U4_U2_N19395)>0.5,1,0)    }
I_U4_U2_I1         0 U4_U2_N20287 DC 2.777uAdc  
E_U4_U2_ABM4         U4_U2_N20241 0 VALUE { V(VS1)  
+ -V(OUT4)    }
V_U4_U2_V5         U4_U2_N20159 0 5
E_U4_U2_ABM3         U4_U2_OL_OFF_PU 0 VALUE { IF(V(U4_U2_N19723)>0.5,1,0)    }
X_U4_U2_U1         U4_U2_N20287 U4_U2_N20317 U4_U2_COMP COMP_BASIC_GEN PARAMS:
+  VDD=1 VSS=0 VTHRESH=0.5
R_U4_U3_R3         U4_U3_N17205516 U4_U3_N17205493  500 TC=0,0 
E_U4_U3_ABM2         U4_U3_N17205516 0 VALUE { IF(V(U4_U3_N17205525)>0.5 &
+  V(U4_U3_GATE)<1.407,1.2u,0)    }
X_U4_U3_U21         U4_U3_N17205457 OUT4 d_d
G_U4_U3_G2         U4_U3_N17205460 U4_U3_GATE U4_U3_N17205493 0 10
E_U4_U3_ABM8         U4_U3_N17205777 0 VALUE { IF(V(U4_VCL_TH)
+  >1.5*V(CH4_VCL),1,0)    }
X_U4_U3_H1    VS1 U4_U3_N17360276 U4_I_SENSE 0 DRIVER1_U4_U3_H1 
X_U4_U3_U11         U4_SWEN U4_U3_N17205525 one_shot PARAMS:  T=60000  
X_U4_U3_U20         U4_U3_GATE U4_U3_N17288546 d_d
X_U4_U3_U6         U4_U3_N17205777 U4_U3_FASTTRIP one_shot PARAMS:  T=500  
E_U4_U3_E2         U4_U3_FT_GAIN 0 TABLE { V(U4_I_SENSE, 0) } 
+ ( (0,0) (0.1,20) (0.5, 15) (1,6) (1.2,5) )
M_U4_U3_M1         U4_U3_N17260058 U4_U3_GATE OUT4 OUT4 NMOS01           
V_U4_U3_V20         U4_U3_N17205460 0 5
X_U4_U3_U15         U4_U3_N17206064 U4_U3_N17205595 one_shot PARAMS:  T=40000  
R_U4_U3_R9         U4_U3_N17260058 U4_U3_N17360835  450m TC=0,0 
X_U4_U3_F1    U4_U3_N17360276 U4_U3_N17360835 VS1 U4_VCL_TH DRIVER1_U4_U3_F1 
X_U4_U3_U24         U4_U3_N17205595 U4_U3_N17205916 INV_BASIC_GEN PARAMS: VDD=1
+  VSS=0 VTHRESH=500E-3
V_U4_U3_V16         U4_U3_N17288546 VS1 4.5
X_U4_U3_U23         U4_SWEN U4_U3_N17206064 INV_BASIC_GEN PARAMS: VDD=1 VSS=0
+  VTHRESH=500E-3
G_U4_U3_ABM2I10         U4_U3_GATE 0 VALUE {
+  IF(V(U4_U3_N17205595)-V(0)>0.5,12.5u,0)    }
R_U4_U3_R10         U4_VCL_TH 0  6k TC=0,0 
E_U4_U3_ABM1         U4_U3_N17205441 0 VALUE { IF(V(U4_SWEN)>0.5,0.45u,0)    }
R_U4_U3_R2         U4_U3_N17205441 U4_U3_N17205795  1 TC=0,0 
X_U4_U3_U22         OUT4 U4_U3_N17260058 d_d
G_U4_U3_ABM2I5         U4_U3_GATE 0 VALUE {
+  IF(V(U4_U3_FASTTRIP)-V(0)>0.5,V(U4_U3_FT_GAIN)*1m,0)    }
G_U4_U3_G1         U4_U3_N17205436 U4_U3_GATE U4_U3_N17205795 0 10
G_U4_U3_ABM2I4         U4_U3_GATE 0 VALUE {
+  LIMIT((V(U4_VCL_TH)-V(CH4_VCL))*V(U4_U3_V_GAIN),0,100u)    }
X_U4_U3_U14         U4_U3_N17205916 U4_U3_N17205669 one_shot PARAMS:  T=50000  
R_U4_U3_R8         U4_U3_GATE OUT4  840k TC=0,0 