*$
*TPS54627
*****************************************************************************
* (C) Copyright 2013 Texas Instruments Incorporated. All rights reserved.                                            
*****************************************************************************
** This model is designed as an aid for customers of Texas Instruments.                                             
** TI and its licensors and suppliers make no warranties, either expressed                                           
** or implied, with respect to this model, including the warranties of                                                    
** merchantability or fitness for a particular purpose. The model is                                                      
** provided solely on an "as is" basis. The entire risk as to its quality                                                    
** and performance is with the customer                                                                                          
*****************************************************************************
*
** Released by: Webench Design Center, Texas Instruments Inc.
* Part: TPS54627
* Date: 15JUL2013
* Model Type: Transient 
* Simulator: PSpice 
* Simulator Version: 16.2.0.p001
* EVM Order Number: TPS54627EVM-052
* EVM Users Guide: SLVU889–April 2013
* Datasheet: SLVSBW6 –APRIL 2013
*
* Model Version: Final 1.10
*
*****************************************************************************
*
* Updates:
*
* Final 1.10
* Soft start time & Hiccup time are modified.
*
* Final 1.00
* Release to Web.
*
***************************************************************************
.SUBCKT TPS54627_TRANS EN GND PwPD SS SW VBST VFB VIN VREG5 PARAMS: MODE=1
X_U10         N162540061 SW d_d1 PARAMS:
X_S18    N16254452 GND SW N16254218 TPS54227_TRANS_S18 
X_U1_U15         U1_RESET_1 U1_N15486587 INV_PS PARAMS: VHI=1 VLO=0
+  VTHRESH=500E-3 TPLH=1E-9 TPHL=1E-9 TR=1E-9 TF=1E-9
X_U1_U14         U1_N15486587 RESET INV_PS PARAMS: VHI=1 VLO=0 VTHRESH=500E-3
+  TPLH=1E-9 TPHL=1E-9 TR=1E-9 TF=1E-9
R_U1_R32         GND SOFTSTART_TYM  1E11  
G_U1_ABMII5         VREG5 SS VALUE { if(V(U1_EN_SS) > 0.5, (5.4545u +
+  MODE*5.4545u), 0)    }
X_U1_U16         U1_N16247082 U1_N16255809 d_d1 PARAMS:
E_U1_ABM2         ENUVOP 0 VALUE { if(V(SS)>1.3, 1,0)    }
E_U1_ABM50         U1_ENSS 0 VALUE { if( V(RESET)<0.5 & V(ENCIR)>0.5,  
+ 1,0)   }
C_U1_C1         GND SOFTSTART_TYM  1u  
E_U1_ABM20         N16254430 0 VALUE { if(V(U1_N15487101)>0.765, 0.765,
+  V(U1_N15487101))    }
X_U1_U577         U1_N16255809 U1_N16256080 U1_SFTSTRT_END U1_N16256086
+  srlatchrhp_basic_gen PARAMS: VDD=1 VSS=0 VTHRESH=.5
E_U1_ABM21         U1_N16247082 0 VALUE { if(V(SS)>0.765, 1, 0)    }
G_U1_ABM2I1         VREG5 SOFTSTART_TYM VALUE { if(V(U1_ENSS) >0.5 & 
+  V(U1_SFTSTRT_END)<0.5 ,1m,0)    }
R_U1_R40         GND U1_N16256086  1E11  
R_U1_R22         GND ENUVOP  1Meg  
R_U1_R41         GND U1_N16256080  1E11  
X_U1_U12         U1_UVP_DELAY_INV UVP_DELAY INV_PS PARAMS: VHI=1 VLO=0
+  VTHRESH=500E-3 TPLH=1E-9 TPHL=1E-9 TR=1E-9 TF=1E-9
X_U1_S5    U1_EN_SS GND SS GND SOFTSTART_U1_S5 
R_U1_R31         GND SS  1E11  
E_U1_ABM4         U1_N15487101 0 VALUE { if(V(SS) > 0.78, 0.78, V(SS))    }
X_U1_U10         SS SS d_d1 PARAMS:
X_U1_U11         U1_ENSS U1_UVP_DELAY_INV U1_EN_SS1 AND
X_U1_U13         U1_EN_SS1 RESET U1_RESET_1 U1_EN_SS MUX2_BASIC_GEN PARAMS:
+  VDD=1 VSS=0 VTHRESH=0.5
C_C7         SW GND  1p IC=0 TC=0,0 
C_C8         VIN SW  1p IC=0 TC=0,0 
X_u6_U15          VREG5 u6_V5INOK COMP_HYS2 PARAMS:  TH=3.75 HYS=.32
C_u6_C5         GND u6_REG5  100p  
E_u6_ABM19         ENCIR 0 VALUE { if( V(ENSW)>0.5  
+ & V(u6_V5INOK)>0.5,1,0)   }
E_u6_ABM20         u6_ENVREG5 0 VALUE { if( V(ENSW)>0.5  
+ & V(VIN)>3.5,LIMIT(V(VIN),0,5.5),0)   }
E_u6_ABM17         ENSW 0 VALUE { if(V(EN)>1.6,1,0)    }
X_u6_S1    u6_ENVREG5 GND VREG5 GND LDO_u6_S1 
G_u6_G2         u6_REG5 VREG5 TABLE { V(u6_REG5, VREG5) } 
+ ( (-10,-12m)(-1m,-10m)(0,0)(1m,60m)(10,70m) )
C_u6_C1         GND EN  1p IC=0 TC=0,0 
R_u6_R4         u6_REG5 u6_ENVREG5  1  
X_U9         N162538441 VIN d_d1 PARAMS:
R_R32         N16254276 LLC  10 TC=0,0 
V_V1         N162540061 GND -250m
R_R31         GND PwPD  1E11  
C_C9         GND LLC  1n  
X_U5_U265         U5_ON U5_ONSET U5_ONSET U5_N14704342 NAND3_PS PARAMS: VHI=1
+  VLO=0 VTHRESH=500E-3 TPLH=1E-9 TPHL=1E-9 TR=1E-9 TF=1E-9
C_U5_C10         GND U5_RMP  4p IC=0 TC=0,0 
X_U5_U296         U5_BLNKM U5_TBLNKB U5_N14705582 NAND2_PS PARAMS: VHI=1 VLO=0
+  VTHRESH=500E-3 TPLH=1E-9 TPHL=1E-9 TR=1E-9 TF=1E-9
C_U5_C11         GND U5_TIMEOCL  3p IC=0 TC=0,0 
X_U5_U257         U5_N14703724 U5_N14703638 U5_N14703638 U5_ONS1 NAND3_PS
+  PARAMS: VHI=1 VLO=0 VTHRESH=500E-3 TPLH=1E-9 TPHL=1E-9 TR=1E-9 TF=1E-9
C_U5_C5         VOINFO U5_INT  6p IC=0 TC=0,0 
C_U5_C4         GND U5_TON  20p IC=0 TC=0,0 
X_U5_U142         U5_ONSET U5_ONS3 U5_ONS1 U5_ONS2 U5_TBLNK OR4_PS PARAMS:
+  VHI=1 VLO=0 VTHRESH=500E-3 TPLH=1E-9 TPHL=1E-9 TR=1E-9 TF=1E-9
R_U5_R26         U5_LLO GND  1e15 TC=0,0 
C_U5_C13         U5_OCLHI GND  10p IC=0 TC=0,0 
R_U5_R29         GND U5_RMP  1e8 TC=0,0 
X_U5_U283         U5_N14704648 U5_N147039301 U5_DRH2 AND
X_U5_U278         U5_HI_READY U5_N14703778 INVERTER
X_U5_U271         U5_HI_DEL U5_N14703778 U5_LOW_DELAY NOR2
E_U5_ABM46         U5_RAMP 0 VALUE { if(V(ENCIR)>0.5,   
+ LIMIT((V(U5_RMPIN)-0.01),-10m,5m),0)   }
X_U5_U258         U5_ONS1 U5_N14703724 U5_TBLNKB ENCIR NAND3_PS PARAMS: VHI=1
+  VLO=0 VTHRESH=500E-3 TPLH=1E-9 TPHL=1E-9 TR=1E-9 TF=1E-9
X_U5_U279         U5_HIDRIVE U5_N147039301 INVERTER
G_U5_ABM2I1         VREG5 U5_TON VALUE { if(V(U5_DQOS)<0.25, V(SW)/154K,0)    }
E_U5_E12         U5_SWIN GND SW GND 1
R_U5_R30         GND U5_N147073942  1e8 TC=0,0 
R_U5_R42         U5_N15003465 U5_OCLHI  200 TC=0,0 
X_U5_U16         VREG5 VBST d_d1 PARAMS:
V_U5_V82         U5_N14704906 U5_VO_TON 70m
E_U5_ABM48         U5_VOINFO1 0 VALUE { V(VOINFO) * 0.5    }
X_U5_U250         UVP_DELAY U5_N153816341 INVERTER
R_U5_R36         U5_N14705626 GND  300k TC=0,0 
X_U5_U241         U5_BLNKM U5_LOOPB U5_N14703638 OR
X_U5_U286         U5_LOW_READY U5_PREBIAS OVP U5_SSENDSET U5_N15381614 NOR4
R_U5_R34         U5_N14705578 GND  60k TC=0,0 
E_U5_ABM49         U5_VO_TON 0 VALUE { if( V(N16254472)<0.5,   
+ V(U5_VOINFO1), 0.33)   }
X_U5_U311         U5_N14704742 U5_DRL1 INV_PS PARAMS: VHI=1 VLO=0
+  VTHRESH=500E-3 TPLH=1E-9 TPHL=1E-9 TR=1E-9 TF=1E-9
X_U5_S6    U5_DRH2 GND N16253804 SW DCAP_U5_S6 
E_U5_ABM47         U5_START_DEL 0 VALUE { if(V(U5_TIMEOCL) >0.5,1,0)    }
G_U5_ABM2I2         U5_TON GND VALUE { if(V(U5_DQOS) >.75, V(U5_TON)/200,0)   
+  }
X_U5_U288         ENCIR U5_N153816582 U5_LOWDRIVE AND
X_U5_U285         U5_N14704742 U5_N147040061 U5_DRL2 AND
X_U5_U576         U5_DRVHPREBIAS U5_N14706850 U5_N14706924 U5_PREBIAS
+  srlatchrhp_basic_gen PARAMS: VDD=1 VSS=0 VTHRESH=.5
X_U5_U261         U5_N14707232 U5_N14704178 U5_N14704178 U5_ZC NAND3_PS PARAMS:
+  VHI=1 VLO=0 VTHRESH=500E-3 TPLH=1E-9 TPHL=1E-9 TR=1E-9 TF=1E-9
X_U5_U192         N16254452 U5_N14704200 BUFFER_PS PARAMS: VHI=1 VLO=0
+  VTHRESH=2.5 TPLH=2n TPHL=5E-9 TR=1E-9 TF=1E-9
X_U5_S8    U5_DRL2 GND N16254452 GND DCAP_U5_S8 
R_U5_R9         U5_TIMEOCL U5_N14786773  1Meg TC=0,0 
X_U5_U266         U5_N14704342 U5_ON U5_TOS ENCIR NAND3_PS PARAMS: VHI=1 VLO=0
+  VTHRESH=500E-3 TPLH=1E-9 TPHL=1E-9 TR=1E-9 TF=1E-9
E_U5_ABM35         U5_OCLTHR 0 VALUE { if(V(N16254472)<0.5, -0.2044,-0.1876)   
+  }
R_U5_R28         U5_N14704796 GND  1e15 TC=0,0 
X_U5_U287         U5_N153816341 U5_N15381614 U5_N153816582 AND
X_U5_S12    U5_QRMP GND U5_RMP GND DCAP_U5_S12 
R_U5_R31         GND U5_QRMP  1e8 TC=0,0 
E_U5_ABM37         U5_ONS3 0 VALUE { if(V(VOINFO) >7,1,0)    }
C_U5_C12         U5_N14705662 GND  10p IC=0 TC=0,0 
X_U5_U282         U5_HIDRIVE U5_N14704040 U5_DRH1 AND
E_U5_ABM3         U5_DRVHPREBIAS 0 VALUE { if(V(N16253804)>5,1,0)    }
E_U5_E11         U5_N14786773 GND U5_OCLHI GND 2
X_U5_U280         U5_LOWDRIVE U5_N147040061 INVERTER
X_U5_U216         U5_N14705078 ENCIR U5_N14705656 AND
X_U5_U268         U5_N14705168 ENCIR U5_ONG U5_TBLNK NAND3_PS PARAMS: VHI=1
+  VLO=0 VTHRESH=500E-3 TPLH=1E-9 TPHL=1E-9 TR=1E-9 TF=1E-9
E_U5_ABM11         U5_N15003465 0 VALUE { if( V(U5_OCLTHR)  
+ >V(LLC) ,1,0)   }
X_U5_U242         U5_BLNKM U5_OCLHI U5_OCLDIS OR
R_U5_R23         GND U5_TON  10Meg TC=0,0 
C_U5_C8         GND U5_N14738075  4.6p IC=0 TC=0,0 
E_U5_E10         VOINFO GND U5_N14738087 GND 1
R_U5_R25         VREG5 GND  1e15 TC=0,0 
R_U5_R40         GND U5_N14706850  1Meg  
X_U5_U302         U5_DRVHPREBIAS U5_QRMP U5_N147073942 MONOPOS_PS PARAMS:
+  PW=10n
R_U5_R41         SW U5_N14705662  200 TC=0,0 
X_U5_U313         U5_N14704296 U5_DRL2 INV_PS PARAMS: VHI=1 VLO=0
+  VTHRESH=500E-3 TPLH=1E-9 TPHL=1E-9 TR=1E-9 TF=1E-9
X_U5_U281         U5_DRVHPREBIAS U5_N14705142 U5_HI_DEL AND
X_U5_U243         U5_BLNKM U5_NCLB U5_N14704178 OR
X_U5_U239         U5_LUPB U5_LOOPB INVERTER
R_U5_R6         U5_N14738075 U5_N14791687  1800k TC=0,0 
X_U5_U217         U5_DQOS U5_N14705656 U5_TOS OR
X_U5_U284         U5_LOWDRIVE U5_N14704296 U5_DRL1 AND
G_U5_G1         U5_VIM GND U5_N14705578 U5_N14705626 1u
X_U5_U262         U5_ZC U5_N14707232 U5_TBLNKB ENCIR NAND3_PS PARAMS: VHI=1
+  VLO=0 VTHRESH=500E-3 TPLH=1E-9 TPHL=1E-9 TR=1E-9 TF=1E-9
C_U5_C9         GND U5_N14738087  4.6p IC=0 TC=0,0 
E_U5_ABM9         U5_LLO 0 VALUE { if( V(U5_N14704796)>0.5,  
+ V(SW),  
+ V(GND) )  }
X_U5_U247         U5_LOW_READY U5_N147042841 INVERTER
E_U5_ABM28         U5_N14704796 0 VALUE { if( V(U5_N14705662)<0.5  
+ & V(U5_ON)<0.5 ,1,0)   }
R_U5_R35         U5_INT U5_N14705626  220k TC=0,0 
X_U5_U274         ENCIR U5_DRVOFF INVERTER
X_U5_U295         U5_N14703510 U5_HI_DEL U5_HIDRIVE NAND2_PS PARAMS: VHI=1
+  VLO=0 VTHRESH=500E-3 TPLH=1E-9 TPHL=1E-9 TR=1E-9 TF=1E-9
X_U5_U193         U5_HI_READY U5_DQOS BUFFER_PS PARAMS: VHI=1 VLO=0
+  VTHRESH=500E-3 TPLH=2E-9 TPHL=2E-9 TR=1E-9 TF=1E-9
X_U5_U191         U5_N14703778 U5_N14705142 BUFFER_PS PARAMS: VHI=1 VLO=0
+  VTHRESH=500E-3 TPLH=2n TPHL=50n TR=1E-9 TF=1E-9
C_U5_C6         U5_N14705578 GND  0.8p IC=0 TC=0,0 
X_U5_U277         U5_ZC U5_N14705922 U5_N14705582 OR
R_U5_R38         U5_VIM GND  1e11 TC=0,0 
R_U5_R37         GND U5_N14706924  1Meg  
X_U5_U259         U5_N14703428 U5_OCLDIS U5_OCLDIS U5_ONS2 NAND3_PS PARAMS:
+  VHI=1 VLO=0 VTHRESH=500E-3 TPLH=1E-9 TPHL=1E-9 TR=1E-9 TF=1E-9
X_U5_U263         U5_SSENDSET ENCIR ENCIR U5_N14703488 NAND3_PS PARAMS: VHI=1
+  VLO=0 VTHRESH=500E-3 TPLH=1E-9 TPHL=1E-9 TR=1E-9 TF=1E-9
R_U5_R7         U5_N14738087 U5_N14738075  1800k TC=0,0 
E_U5_ABM15         U5_REFEFF 0 VALUE { V(N16254430)  
+ + V(U5_RAMP)   }
E_U5_ABM19         U5_N14705078 0 VALUE { if( V(U5_N14704906)  
+ >V(U5_TON) ,1,0)   }
X_U5_U299         U5_N147062321 U5_LOW_READY INV_PS PARAMS: VHI=1 VLO=0
+  VTHRESH=500E-3 TPLH=200n TPHL=10E-9 TR=1E-9 TF=1E-9
R_U5_R27         SW U5_INT  670k TC=0,0 
X_U5_U310         U5_N14704648 U5_DRH1 INV_PS PARAMS: VHI=1 VLO=0
+  VTHRESH=500E-3 TPLH=1E-9 TPHL=1E-9 TR=1E-9 TF=1E-9
X_U5_U267         U5_TBLNK U5_N14705168 U5_TOS U5_TOS NAND3_PS PARAMS: VHI=1
+  VLO=0 VTHRESH=500E-3 TPLH=1E-9 TPHL=1E-9 TR=1E-9 TF=1E-9
X_U5_U275         U5_DRVOFF UVP_DELAY U5_HI_READY OVP U5_HIDRIVE NOR4
X_U5_U188         U5_TBLNK U5_N147041100 BUFFER_PS PARAMS: VHI=1 VLO=0
+  VTHRESH=500E-3 TPLH=10E-9 TPHL=30E-9 TR=1E-9 TF=1E-9
E_U5_ABM12         U5_NCLB 0 VALUE { if( V(LLC)  
+ >-V(U5_OCLTHR),0,1)   }
X_U5_U245         U5_N14704200 U5_N14705922 INVERTER
E_U5_E7         U5_RMPIN GND U5_RMP GND 1
G_U5_ABMII1         VREG5 U5_RMP VALUE { if(V(ENCIR)>0.5, 28n,0)    }
C_U5_C14         GND U5_N14791687  5.4p IC=0 TC=0,0 
X_U5_U260         U5_ONS2 U5_N14703428 U5_TBLNKB ENCIR NAND3_PS PARAMS: VHI=1
+  VLO=0 VTHRESH=500E-3 TPLH=1E-9 TPHL=1E-9 TR=1E-9 TF=1E-9
X_U5_U264         U5_N14703488 U5_SSENDSET U5_N14703510 U5_SSEND NAND3_PS
+  PARAMS: VHI=1 VLO=0 VTHRESH=500E-3 TPLH=1E-9 TPHL=1E-9 TR=1E-9 TF=1E-9
X_U5_U294         U5_HI_READY U5_ON U5_ON1 NAND2_PS PARAMS: VHI=1 VLO=0
+  VTHRESH=500E-3 TPLH=1E-9 TPHL=1E-9 TR=1E-9 TF=1E-9
X_U5_U270         U5_N14704200 U5_N147042841 U5_ON1 NOR2
X_U5_U300         U5_ONG U5_N147062321 INV_PS PARAMS: VHI=1 VLO=0
+  VTHRESH=500E-3 TPLH=1E-9 TPHL=1E-9 TR=1E-9 TF=1E-9
R_U5_R10         U5_N14791687 U5_SWIN  572k TC=0,0 
E_U5_E8         U5_N14705832 GND VFB GND 1
X_U5_U312         U5_N14704040 U5_DRH2 INV_PS PARAMS: VHI=1 VLO=0
+  VTHRESH=500E-3 TPLH=1E-9 TPHL=1E-9 TR=1E-9 TF=1E-9
E_U5_ABM10         U5_LUPB 0 VALUE { if( V(U5_REFEFF)  
+ >V(U5_VIM) ,1,0)   }
X_U5_S5    U5_DRH1 GND VBST N16253804 DCAP_U5_S5 
X_U5_U246         U5_N147041100 U5_TBLNKB INVERTER
R_U5_R33         VOINFO U5_N14705578  92k TC=0,0 
X_U5_U249         U5_ON U5_ONB INVERTER
X_U5_U194         U5_START_DEL N16254472 BUFFER_PS PARAMS: VHI=1 VLO=0
+  VTHRESH=.5 TPLH=10.3u TPHL=1u TR=1E-9 TF=1E-9
R_U5_R32         U5_VIM U5_N14705832  8k TC=0,0 
X_U5_S7    U5_DRL1 GND VREG5 N16254452 DCAP_U5_S7 
X_U5_U269         U5_LOW_READY U5_LOW_DELAY U5_ONB U5_ZC NAND3_PS PARAMS: VHI=1
+  VLO=0 VTHRESH=500E-3 TPLH=1E-9 TPHL=1E-9 TR=1E-9 TF=1E-9
X_S17    N16253804 SW VIN SW TPS54227_TRANS_S17 
V_V2         N162538441 SW -250m
X_H1    N16254218 GND N16254276 GND TPS54227_TRANS_H1 
R_U3_R35         GND U3_N16233176  1E11  
X_U3_S12    ENCIR GND VOINFO GND FAULTS_U3_S12 
V_U3_V92         U3_N16233356 GND 0.5
R_U3_R37         GND RESET  1E11  
E_U3_ABM5         U3_N16225554 0 VALUE { if(V(VFB) < V(U3_N16225546) * 0.65,
+  1,0)    }
R_U3_R44         U3_N16257113 RESET  1  
C_U3_C1         GND U3_N16233126  1.4u  
X_U3_S5    RESET GND U3_N16233126 GND FAULTS_U3_S5 
X_U3_U578         ENUVOP RESET U3_N16225334 U3_N162257460 srlatchrhp_basic_gen
+  PARAMS: VDD=1 VSS=0 VTHRESH=.5
C_U3_C3         GND RESET  1n  
E_U3_ABM7         U3_N16233176 0 VALUE { IF( V(U3_N16233126)  
+ >V(U3_N16233356),1,0 )   }
R_U3_R39         OVP U3_N16229261  1k  
V_U3_V91         U3_N16225546 GND 0.765
G_U3_ABM2I1         VREG5 U3_N16233126 VALUE { if(V(U3_START_C) >
+  0.5,0.1m/V(SOFTSTART_TYM) , 0 )    }
X_U3_U309         U3_N16225334 U3_N16225554 U3_UVP AND
E_U3_ABM6         U3_OV 0 VALUE { if(V(VFB) > V(U3_N16225546) * 1.25, 1,0)    }
C_U3_C2         GND OVP  1p  
X_U3_U191         U3_N16233176 U3_N16267025 BUFFER_PS PARAMS: VHI=1 VLO=0
+  VTHRESH=500E-3 TPLH=10u TPHL=1n TR=1E-9 TF=1E-9
X_U3_U190         U3_UVP UVP_DELAY BUFFER_PS PARAMS: VHI=1 VLO=0 VTHRESH=500E-3
+  TPLH=238u TPHL=1n TR=1E-9 TF=1E-9
X_U3_U311         U3_N16233176 U3_N16257071 U3_N16257113 AND
R_U3_R36         GND U3_N16233126  1E11  
R_U3_R38         GND U3_N162257460  1E11  
X_U3_U14         U3_N16257071 U3_N16267025 INV_PS PARAMS: VHI=1 VLO=0
+  VTHRESH=500E-3 TPLH=1E-9 TPHL=1E-9 TR=1E-9 TF=1E-9
X_U3_U310         ENCIR U3_OV U3_N16229261 AND
X_U3_U576         UVP_DELAY U3_N16233176 U3_START_C U3_N16233424
+  srlatchrhp_basic_gen PARAMS: VDD=1 VSS=0 VTHRESH=.5
R_U3_R34         GND U3_N16233424  1E11
.IC         V(SOFTSTART_TYM )=0
.IC         V(U3_N16233126 )=0  
.ENDS TPS54627_TRANS


.subckt TPS54227_TRANS_S18 1 2 3 4  
S_S18         3 4 1 2 _S18
RS_S18         1 2 1G
.MODEL         _S18 VSWITCH Roff=1e8 Ron=28m Voff=1 Von=3
.ends TPS54227_TRANS_S18

.subckt SOFTSTART_U1_S5 1 2 3 4  
S_U1_S5         3 4 1 2 _U1_S5
RS_U1_S5         1 2 1G
.MODEL         _U1_S5 VSWITCH Roff=1e11 Ron=10 Voff=.75 Von=.25
.ends SOFTSTART_U1_S5

.subckt LDO_u6_S1 1 2 3 4  
S_u6_S1         3 4 1 2 _u6_S1
RS_u6_S1         1 2 1G
.MODEL         _u6_S1 VSWITCH Roff=1e8 Ron=100 Voff=3.6 Von=3.4
.ends LDO_u6_S1

.subckt DCAP_U5_S6 1 2 3 4  
S_U5_S6         3 4 1 2 _U5_S6
RS_U5_S6         1 2 1G
.MODEL         _U5_S6 VSWITCH Roff=1e8 Ron=.9 Voff=.25 Von=.75
.ends DCAP_U5_S6

.subckt DCAP_U5_S8 1 2 3 4  
S_U5_S8         3 4 1 2 _U5_S8
RS_U5_S8         1 2 1G
.MODEL         _U5_S8 VSWITCH Roff=1e8 Ron=.9 Voff=.25 Von=.75
.ends DCAP_U5_S8

.subckt DCAP_U5_S12 1 2 3 4  
S_U5_S12         3 4 1 2 _U5_S12
RS_U5_S12         1 2 1G
.MODEL         _U5_S12 VSWITCH Roff=1e11 Ron=1 Voff=.25 Von=.75
.ends DCAP_U5_S12

.subckt DCAP_U5_S5 1 2 3 4  
S_U5_S5         3 4 1 2 _U5_S5
RS_U5_S5         1 2 1G
.MODEL         _U5_S5 VSWITCH Roff=1e8 Ron=3 Voff=.25 Von=.75
.ends DCAP_U5_S5

.subckt DCAP_U5_S7 1 2 3 4  
S_U5_S7         3 4 1 2 _U5_S7
RS_U5_S7         1 2 1G
.MODEL         _U5_S7 VSWITCH Roff=1e8 Ron=3 Voff=.25 Von=.75
.ends DCAP_U5_S7

.subckt TPS54227_TRANS_S17 1 2 3 4  
S_S17         3 4 1 2 _S17
RS_S17         1 2 1G
.MODEL         _S17 VSWITCH Roff=1e8 Ron=36m Voff=1 Von=2
.ends TPS54227_TRANS_S17

.subckt TPS54227_TRANS_H1 1 2 3 4  
H_H1         3 4 VH_H1 28m
VH_H1         1 2 0V
.ends TPS54227_TRANS_H1

.subckt FAULTS_U3_S12 1 2 3 4  
S_U3_S12         3 4 1 2 _U3_S12
RS_U3_S12         1 2 1G
.MODEL         _U3_S12 VSWITCH Roff=1e11 Ron=5 Voff=.6 Von=.4
.ends FAULTS_U3_S12

.subckt FAULTS_U3_S5 1 2 3 4  
S_U3_S5         3 4 1 2 _U3_S5
RS_U3_S5         1 2 1G
.MODEL         _U3_S5 VSWITCH Roff=1e11 Ron=10 Voff=0.25 Von=0.75
.ends FAULTS_U3_S5


** Wrapper definitions for AA legacy support **

.subckt d_d1 1 2

d1 1 2 dd1

.model dd1 d
+ is=1e-015
+ tt=1e-011
+ rs=0.05
+ n=0.1

.ends d_d1
*$
.subckt srlatchrhp_basic_gen s r q qb params: vdd=1 vss=0 vthresh=0.5 

rs s 0 1e11
rr r 0 1e11
gq 0 qint value = {if(v(r) > {vthresh},-5,if(v(s)>{vthresh},5, 0))}
cqint qint 0 1n
rqint qint 0 1000meg
d_d10 qint my5 d_d1
v1 my5 0 {vdd}
d_d11 myvss qint d_d1
v2 myvss 0 {vss} 
eq qqq 0 qint 0 1
x3 qqq qqqd1 buffer_ps
rqq qqqd1 q 1
eqb qbr 0 value = {if( v(q) > {vthresh}, {vss},{vdd})}
rqb qbr qb 1 
cdummy1 q 0 10p 
cdummy2 qb 0 10p
.ic v(qint) {vss}

.model d_d1 d
+ is=1e-015
+ tt=1e-011
+ rs=0.05
+ n=0.1

.ends srlatchrhp_basic_gen
*$

.SUBCKT AND A B OUT  
EOUT OUT1 0 VALUE { IF( V(A)>0.5 & V(B)>0.5,1,0) }
R1 OUT1 OUT 1
C1 OUT 0 10p
.ends AND
*$
.SUBCKT OR A B OUT  
EOUT OUT1 0 VALUE { IF( V(A)>0.5 | V(B)>0.5,1,0) }
R1 OUT1 OUT 1
C1 OUT 0 10p
.ends OR
*$
.SUBCKT NOR2 A B OUT  
EOUT OUT1 0 VALUE { IF( V(A)>0.5 | V(B)>0.5,0,1) }
R1 OUT1 OUT 1
C1 OUT 0 10p
.ends NOR2
*$
.SUBCKT NOR3 A B C OUT  
EOUT OUT1 0 VALUE { IF( V(A)>0.5 | V(B)>0.5 | V(C)>0.5,0,1) }
R1 OUT1 OUT 1
C1 OUT 0 10p
.ends NOR3
*$
.SUBCKT NOR4 A B C D OUT  
EOUT OUT1 0 VALUE { IF( V(A)>0.5 | V(B)>0.5 | V(C)>0.5 | V(D)>0.5,0,1) }
R1 OUT1 OUT 1
C1 OUT 0 10p
.ends NOR4
*$
.SUBCKT NAND3 A B C OUT  
EOUT OUT1 0 VALUE { IF( V(A)<0.5 & V(B)<0.5 & V(C)<0.5,1,0) }
R1 OUT1 OUT 1
C1 OUT 0 10p
.ends NAND3
*$
.SUBCKT NAND2 A B OUT  
EOUT OUT1 0 VALUE { IF( V(A)<0.5 & V(B)<0.5,1,0) }
R1 OUT1 OUT 1
C1 OUT 0 10p
.ends NAND2
*$
.SUBCKT AND3 A B C OUT  
EOUT OUT1 0 VALUE { IF( V(A)>0.5 & V(B)>0.5 & V(C)>0.5,1,0) }
R1 OUT1 OUT 1
C1 OUT 0 10p
.ends AND3
*$
.SUBCKT INVERTER IN OUT  
EOUT OUT1 0 VALUE { IF( V(IN)<0.5,1,0) }
R1 OUT1 OUT 1
C1 OUT 0 10p
.ends INVERTER
*$
.SUBCKT COMP_HYS2 INP OUT 
+ PARAMs:  TH=.5 HYS=0.1
EIN INP1 0 INP 0 1 
EHYS INP1 INP2 VALUE { IF( V(1)>0.5,-(HYS)/2,HYS/2) }
EOUT OUT 0 VALUE { IF( V(INP2)>TH,1,0) }
R1 OUT 1 1
C1 1 0 1n
RINP1 INP1 0 10K
.ends COMP_HYS2
*$
.SUBCKT DELAY IN OUT
+ PARAMs:  T=100
S_S1         MEAS 0 RESET2 0 S1
E_ABM1         CH 0 VALUE { if( V(IN)>0.5,1,0)    }
E_ABM3         OUT 0 VALUE { if( V(MEAS)>0.5 & V(CH)>0.5,1,0)    }
R_R1         MEAS CH  {T} 
C_C1         0 MEAS  1.4427n  
E_ABM2         RESET 0 VALUE { if(V(CH)<0.5,1,0)    }
R_R2         RESET2 RESET  0.1  
C_C2         0 RESET2  1.4427n  
.MODEL         S1 VSWITCH Roff=1e9 Ron=1.0 Voff=0.25V Von=0.75V
.ENDS DELAY
*$
.SUBCKT NAND3_PS Y A B C PARAMS: vhi=1 vlo=0 vthresh=500e-3
+ tplh=1e-9 tphl=1e-9 tr=1e-9 tf=1e-9
RA A 0 1e11
CA A 0 0.01pF
RB B 0 1e11
CB B 0 0.01pF
RC C 0 1e11
CC C 0 0.01pF
VS VSUP 0 DC 1
ENAND3 Ypp 0 VALUE={IF(V(A) > {vthresh} & V(B) > {vthresh} & V(C) >
+ {vthresh}, 0, 1)}
ROUTpp Ypp 0 1e11
XNSW1 OUTp Ypp 0 NSW_PS PARAMS: RONval={(tplh+1e-15)/(1e-12*0.693)}
+ VTHval=0.5
XPSW1 OUTp Ypp VSUP PSW_PS PARAMS: RONval={(tphl+1e-15)/(1e-12*0.693)}
+ VTHval=0.5
CDEL1 OUTp 0 1pF
ETHRESH Yp 0 VALUE={IF(V(OUTp) > 0.5, 1, 0)}
ROUTp Yp 0 1e11
XNSW2 OUTr Yp 0 NSW_PS PARAMS: RONval={(tf+1e-15)/(1e-12*2.3)} VTHval=0.5
XPSW2 OUTr Yp VSUP PSW_PS PARAMS: RONval={(tr+1e-15)/(1e-12*2.3)} VTHval=0.5
CDEL2 OUTr 0 1pF
EOUT OUTf 0 VALUE={V(OUTr)*({vhi} - {vlo})+{vlo}}
RDR OUTf Y  1000
RO Y 0 1e11
.ENDS NAND3_PS
*$
.SUBCKT BUFFER_PS A Y PARAMS: vhi=1 vlo=0 vthresh=500e-3 tplh=1e-9
+ tphl=1e-9 tr=1e-9 tf=1e-9
RA A 0 1e11
CA A 0 0.01pF
VS VSUP 0 DC 1
EBUF1 Ypp 0 VALUE={IF(V(A) > ({vthresh}), 1, 0)}
ROUTpp Ypp 0 1e11
XNSW1 OUTp Ypp 0 NSW_PS PARAMS: RONval={(tplh+1e-15)/(1e-12*0.693)}
+ VTHval=0.5
XPSW1 OUTp Ypp VSUP PSW_PS PARAMS: RONval={(tphl+1e-15)/(1e-12*0.693)}
+ VTHval=0.5
CDEL1 OUTp 0 1pF
ETHRESH Yp 0 VALUE={IF(V(OUTp) > 0.5, 1, 0)}
ROUTp Yp 0 1e11
** add rise and fall *****
XNSW2 OUTr Yp 0 NSW_PS PARAMS: RONval={(tf+1e-15)/(1e-12*2.3)} VTHval=0.5
XPSW2 OUTr Yp VSUP PSW_PS PARAMS: RONval={(tr+1e-15)/(1e-12*2.3)} VTHval=0.5
CDEL2 OUTr 0 1pF
EOUT OUTf 0 VALUE={V(OUTr)*({vhi} - {vlo})+{vlo}}
RDR OUTf Y  1000
RO Y 0 1e11
.ENDS BUFFER_PS
*$
.SUBCKT INV_PS Y A PARAMS: vhi=1 vlo=0 vthresh=500e-3
+ tplh=1e-9 tphl=1e-9 tr=1e-9 tf=1e-9
RA A 0 1e11
CA A 0 0.01pF
VS VSUP 0 DC 1
EINV1 Ypp 0 VALUE={IF(V(A) > ({vthresh}), 0, 1)}
ROUTpp Ypp 0 1e11
XNSW1 OUTp Ypp 0 NSW_PS PARAMS: RONval={(tplh+1e-15)/(1e-12*0.693)}
+ VTHval=0.5
XPSW1 OUTp Ypp VSUP PSW_PS PARAMS: RONval={(tphl+1e-15)/(1e-12*0.693)}
+ VTHval=0.5
CDEL1 OUTp 0 1pF
ETHRESH Yp 0 VALUE={IF(V(OUTp) > 0.5, 1, 0)}
ROUTp Yp 0 1e11
XNSW2 OUTr Yp 0 NSW_PS PARAMS: RONval={(tf+1e-15)/(1e-12*2.3)} VTHval=0.5
XPSW2 OUTr Yp VSUP PSW_PS PARAMS: RONval={(tr+1e-15)/(1e-12*2.3)} VTHval=0.5
CDEL2 OUTr 0 1pF
EOUT OUTf 0 VALUE={V(OUTr)*({vhi} - {vlo})+{vlo}}
RDR OUTf Y  1000
RO Y 0 1e11
.ENDS INV_PS
*$
.SUBCKT OR4_PS Y A B C D PARAMS: vhi=1 vlo=0 vthresh=500e-3 tplh=1e-9
+ tphl=1e-9 tr=1e-9 tf=1e-9
RA A 0 1e11
CA A 0 0.01pF
RB B 0 1e11
CB B 0 0.01pF
RC C 0 1e11
CC C 0 0.01pF
RD D 0 1e11
CD D 0 0.01pF
VS VSUP 0 DC 1
EOR4 Ypp 0 VALUE={IF(V(A) > {vthresh} | V(B) > {vthresh}  | V(C) >
+ {vthresh}  | V(D) > {vthresh}, 1, 0)}
ROUTpp Ypp 0 1e11
XNSW1 OUTp Ypp 0 NSW_PS PARAMS: RONval={(tplh+1e-15)/(1e-12*0.693)}
+ VTHval=0.5
XPSW1 OUTp Ypp VSUP PSW_PS PARAMS: RONval={(tphl+1e-15)/(1e-12*0.693)}
+ VTHval=0.5
CDEL1 OUTp 0 1pF
ETHRESH Yp 0 VALUE={IF(V(OUTp) > 0.5, 1, 0)}
ROUTp Yp 0 1e11
XNSW2 OUTr Yp 0 NSW_PS PARAMS: RONval={(tf+1e-15)/(1e-12*2.3)} VTHval=0.5
XPSW2 OUTr Yp VSUP PSW_PS PARAMS: RONval={(tr+1e-15)/(1e-12*2.3)} VTHval=0.5
CDEL2 OUTr 0 1pF
EOUT OUTf 0 VALUE={V(OUTr)*({vhi} - {vlo})+{vlo}}
RDR OUTf Y  1000
RO Y 0 1e11
.ENDS OR4_PS
*$
.SUBCKT NAND2_PS Y A B PARAMS: vhi=1 vlo=0 vthresh=500e-3
+ tplh=1e-9 tphl=1e-9 tr=1e-9 tf=1e-9
RA A 0 1e11
CA A 0 0.01pF
RB B 0 1e11
CB B 0 0.01pF
VS VSUP 0 DC 1
ENAND2 Ypp 0 VALUE={IF(V(A) > {vthresh} & V(B) > {vthresh}, 0, 1)}
ROUTpp Ypp 0 1e11
***** add delay lines ****
XNSW1 OUTp Ypp 0 NSW_PS PARAMS: RONval={(tplh+1e-15)/(1e-12*0.693)}
+ VTHval=0.5
XPSW1 OUTp Ypp VSUP PSW_PS PARAMS: RONval={(tphl+1e-15)/(1e-12*0.693)}
+ VTHval=0.5
CDEL1 OUTp 0 1pF
ETHRESH Yp 0 VALUE={IF(V(OUTp) > 0.5, 1, 0)}
ROUTp Yp 0 1e11
** add rise and fall *****
XNSW2 OUTr Yp 0 NSW_PS PARAMS: RONval={(tf+1e-15)/(1e-12*2.3)} VTHval=0.5
XPSW2 OUTr Yp VSUP PSW_PS PARAMS: RONval={(tr+1e-15)/(1e-12*2.3)} VTHval=0.5
CDEL2 OUTr 0 1pF
EOUT OUTf 0 VALUE={V(OUTr)*({vhi} - {vlo})+{vlo}}
RDR OUTf Y  1000
RO Y 0 1e11
.ENDS NAND2_PS
*$

.SUBCKT NSW_PS D G S PARAMS: RONval=10k VTHval=0.7 VCHARval=0.01
+ CGval=0.01pF CDval=0.01pF 
RDDUM D 0 1e11
RSDUM S 0 1e11
RGDUM G 0 1e11
CG G D {CGval}
CD D S {CDval}
EEXP F1 0 VALUE={LIMIT(((V(G,S)-VTHval)/VCHARval),-80,80)} 
GOUT D S VALUE={V(D,S)/(RONval*(1+EXP(-LIMIT(((V(G,S)-VTHval)/VCHARval)
+,-80,80))))}
.ENDS NSW_PS
*$
.SUBCKT PSW_PS D G S PARAMS: RONval=10k VTHval=0.7 VCHARval=0.01
+ CGval=0.01pF CDval=0.01pF 
RDDUM D 0 1e11
RSDUM S 0 1e11
RGDUM G 0 1e11
CG G D {CGval}
CD D S {CDval}
EEXP F1 0 VALUE={LIMIT(((V(S,G)-VTHval)/VCHARval),-80,80)} 
GOUT S D VALUE={V(S,D)/(RONval*(1+EXP(-LIMIT(((V(S,G)-VTHval)/VCHARval)
+,-80,80))))}
.ENDS PSW_PS
*$
.SUBCKT BUF_DELAY_BASIC_GEN A  Y PARAMS: VDD=5 VSS=0 VTHRESH=2.5
+ DELAY = 10n 
E_ABMGATE1    YINT1 0 VALUE {{IF(V(A) > {VTHRESH} , 
+ {VDD},{VSS})}}
RINT YINT1 YINT2 1
CINT YINT2 0 {DELAY*1.3}
E_ABMGATE2    YINT3 0 VALUE {{IF(V(YINT2) > {VTHRESH} , 
+ {VDD},{VSS})}}
RINT2 YINT3 Y 1
CINT2 Y 0 1n
.ENDS BUF_DELAY_BASIC_GEN
*$
.SUBCKT MONOPOS_PS in Q Qn PARAMS: PW=250u 
VS VSUP 0 DC 1
r1 Q 0 1e11
GIN VSUP YA VALUE={IF(V(IN)>0.5, V(VSUP)/1000K, 0)}
GDIS YA 0 VALUE={IF(V(IN)>0.5,0, V(YA)/1m)}
CIN YA 0 1n IC=0
RIN YA 0 1e11
EABM1 YTD 0 VALUE={IF(V(YA)> {PW*1000}, 1, 0)}
RYTD YTD 0 1e11
EXOR P 0 VALUE={IF(V(YTD) > 0.5 ^ V(IN) > .5, 1, 0)}
ROUTpp2 P 0 1e11
EAND1 Q1 0 VALUE={ IF(V(P)>0.5 & V(IN)>0.5, 1, 0)}
Ro1 Q1 Q 1m
Co1 Q 0 1p
ROUT2 Q 0 1e11
EAND2 Qn1 0 VALUE={ IF(V(Q)>0.5, 0, 1)}
Ro2 Qn1 Qn 1m
Co2 Qn 0 1p
ROUT4 Qn 0 1e11
.ENDS MONOPOS_PS
*$
.SUBCKT CESR IN OUT
+ PARAMs:  C=100u ESR=0.01 X=2 IC=0
C	IN 1  {C*X} IC={IC}
RESR	1 OUT {ESR/X}
.ENDS CESR
*$
.SUBCKT LDCR IN OUT
+ PARAMs:  L=1u DCR=0.01 IC=0
L	IN 1  {L} IC={IC}
RDCR	1 OUT {DCR}
.ENDS LDCR
*$

.SUBCKT COMP INP INM Y PARAMS: VDD=1 VSS=0 VTHRESH=0.5	
E_ABM Yint 0 VALUE {IF (V(INP) > 
+ V(INM), {VDD},{VSS})}
R1 Yint Y 1
C1 Y 0 1n
.ENDS COMP
*$
.SUBCKT COMPHYS_BASIC_GEN INP INM HYS OUT PARAMS: VDD=1 VSS=0 VTHRESH=0.5
EIN INP1 INM1 INP INM 1 
EHYS INP1 INP2 VALUE { IF( V(1) > {VTHRESH},-V(HYS),0) }
EOUT OUT 0 VALUE { IF( V(INP2)>V(INM1), {VDD} ,{VSS}) }
R1 OUT 1 1
C1 1 0 5n
RINP1 INP1 0 1K
.ENDS COMPHYS_BASIC_GEN
*$

.SUBCKT MUX2_BASIC_GEN A B S Y PARAMS: VDD=1 VSS=0 VTHRESH=0.5 
E_ABMGATE  YINT 0 VALUE {{IF(V(S) > {VTHRESH},  
+ V(B),V(A))}}
RINT YINT Y 1
CINT Y 0 1n
.ENDS MUX2_BASIC_GEN
*$