* PSpice Model Editor - Version 16.0.0
*$
* TPS53211
*****************************************************************************
*  (C) Copyright 2011 Texas Instruments Incorporated. All rights reserved.
*****************************************************************************
** This model is designed as an aid for customers of Texas Instruments.
** TI and its licensors and suppliers make no warrenties, either expressed
** or implied, with respect to this model, including the warranties of 
** merchantability or fitness for a particular purpose.  The model is
** provided solely on an "as is" basis.  The entire risk as to its quality
** and performance is with the customer
*****************************************************************************
*
** Released by: Analog eLab Design Center, Texas Instruments Inc.
* Part: TPS53211
* Date: 28SEP2011
* Model Type: TRANSIENT
* Simulator: PSPICE
* Simulator Version: 16.0.0.P001
* EVM Order Number: TPS53211EVM
* EVM Users Guide: 
* Datasheet: SLUSAA9 JUN 2011
*
* Model Version: Final 1.00
*
*****************************************************************************
*
* Updates:
*
* Final 1.00
* Release to Web.
*
*****************************************************************************
.SUBCKT TPS53211_TRANS LGATE PwPd VSEN EN FB COMP PGOOD CSN CSP VCC UGATE
+ PHASE FBG OSC BOOT VCCDR GND
R_R282         GND N18215754  100MEG  
X_S2    CLKRES GND RAMPR P73 TPS53211_TRANS_S2 
X_U76         N16786631 ENSS XLOWDRIVE N16786641 AND3_BASIC_GEN PARAMS: VDD=5
+  VSS=0 VTHRESH=2.5
E_ABM51         N169181740 0 VALUE { if( V(OVP)>2.5 |  
+ V(UVP) >2.5 |  
+ V(POR) >2.5,5,0)  }
X_U630         RSET SSET N16778235 N16778265 srlatchshp_basic_gen PARAMS:
+  PARAMS: VDD=5 VSS=0 VTHRESH=2.5
R_R270         GND N17075342  100MEG  
R_R49         GND N18054996  1e8  
X_U73         TOPON ENSS N16778443 HDRV_PRE AND3_BASIC_GEN PARAMS: VDD=5 VSS=0
+  VTHRESH=2.5
X_U30         PO ResLATCH N17075342 MONONEG_PS PARAMS: PW=4m
G_G4         2P73 TSS OSCRAMP GND 1.953m
X_S6    HDRV_PRE GND BOOT UGATE TPS53211_TRANS_S6 
C_C11         GND COMPSH  10n  
E_ABM65         N180550171 0 VALUE { if(V(OCCOUNT)>4.5,5,0)    }
R_R48         GND N17680012  1e8  
X_U87         TOPON N16938000 INV_BASIC_GEN PARAMS: VDD=5 VSS=0 VTHRESH=2.5
V_V5         N17367472 FBG 2.73
E_ABM74         N17793867 0 VALUE { if( V(ENZC) >2.5,   
+ V(N17790551),  
+ V(N17792092) )   }
V_V3         P73 GND .73
X_U1         N16778484 COMP d_d2 PARAMS:
X_S12    DISCH GND PHASE GND TPS53211_TRANS_S12 
E_ABM20         VREF_GM 0 VALUE { if(V(SS)>0.8, 0.8, V(SS))    }
X_U100         CLKRES N17392349 INV_BASIC_GEN PARAMS: VDD=5 VSS=0 VTHRESH=2.5
R_R284         GND PGD  1e9 TC=0,0 
X_U11         TSS 2P73 d_d1 PARAMS:
X_U82         OVLATCH PO OVP AND2_BASIC_GEN PARAMS: VDD=5 VSS=0 VTHRESH=2.5
X_U94         LDRV_PRE N16786631 INV_BASIC_GEN PARAMS: VDD=5 VSS=0 VTHRESH=2.5
X_U74         N16778470 ENSS N16938000 N16778979 AND3_BASIC_GEN PARAMS: VDD=5
+  VSS=0 VTHRESH=2.5
X_U2         COMP N17367472 d_d2 PARAMS:
X_U78         N18180000 PO UVPCLEAR N18210830 AND3_BASIC_GEN PARAMS: VDD=5
+  VSS=0 VTHRESH=2.5
E_ABM64         ENZC 0 VALUE { if(V(COUNT)>4.5,5,0)    }
X_U71         N17040827 OCLSD BOTON OR2_BASIC_GEN PARAMS: VDD=5 VSS=0
+  VTHRESH=2.5
R_R280         GND N18124215  100MEG  
X_U596         OCBOTLIM PENR OCBOTLATCH OCBOTLBAR srlatchrhp_basic_gen PARAMS:
+  PARAMS: VDD=5 VSS=0 VTHRESH=2.5
X_S1    POR GND RAMPR P73 TPS53211_TRANS_S1 
X_U101         PGOODEN N17666387 INV_BASIC_GEN PARAMS: VDD=5 VSS=0 VTHRESH=2.5
X_S17    N18055136 GND OCCOUNT GND TPS53211_TRANS_S17 
X_S7    N16778979 GND UGATE PHASE TPS53211_TRANS_S7 
X_U9         VCCD BOOT d_d1 PARAMS:
X_U95         N16786641 N16786610 INV_BASIC_GEN PARAMS: VDD=5 VSS=0 VTHRESH=2.5
G_ABM2I5         N16778484 COMP VALUE { if(V(PEN)>2.5,LIMIT(((V(VREF_GM) -
+  V(FB))* 20m), -1m, 1m),0)    }
X_U77         QSET PO OCBOTLBAR NOOCTOP AND3_BASIC_GEN PARAMS: VDD=5 VSS=0
+  VTHRESH=2.5
E_E4         RCOMP GND RAMPR GND 1
X_U97         N17387093 N173874830 INV_BASIC_GEN PARAMS: VDD=5 VSS=0
+  VTHRESH=2.5
E_ABM5         RSET 0 VALUE { if( V(COMP) > V(RCOMP) & V(POR) <2.5,  
+ 5,0)   }
V_V7         N17972526 GND 1.27
E_ABM55         OC20M 0 VALUE { if(V(OCBOT)>0.02, 5,0)    }
X_U574         N16918058 N16918153 OVLATCH N169180211 srlatchrhp_basic_gen
+  PARAMS: VDD=5 VSS=0 VTHRESH=2.5
E_ABM13         N17663966 0 VALUE { IF(V(VSEN) < 0.904 & V(VSEN) > 0.696 &   
+ V(SSEND) >2.5,5,0)   }
E_ABM56         N17539205 0 VALUE { if(V(LLO)> 0.001, 5,0)    }
X_U70         N18208681 OVP N17040827 OR2_BASIC_GEN PARAMS: VDD=5 VSS=0
+  VTHRESH=2.5
E_E7         N17821327 GND COMP GND 1
X_S8    N17680174 GND COUNT GND TPS53211_TRANS_S8 
X_U108         N18102021 LGATE N18119428 AND2_BASIC_GEN PARAMS: VDD=5 VSS=0
+  VTHRESH=2.5
X_U92         OVP OVPCLEAR INV_BASIC_GEN PARAMS: VDD=5 VSS=0 VTHRESH=2.5
X_U104         RESCOUNT PO N17680174 AND2_BASIC_GEN PARAMS: VDD=5 VSS=0
+  VTHRESH=2.5
C_C4         N17464014 2P73  10p  TC=0,0 
X_S5    POR GND SS GND TPS53211_TRANS_S5 
R_R283         GND SS  1e9 TC=0,0 
R_R286         GND PwPd  1m TC=0,0 
R_R276         GND COMPSH  100MEG  
X_U96         BOTON XLOWDRIVE INV_BASIC_GEN PARAMS: VDD=5 VSS=0 VTHRESH=2.5
X_S4    POR GND N17464014 2P73 TPS53211_TRANS_S4 
R_R25         GND N169180211  1Meg  
X_S18    N18055121 GND N18055063 OCCOUNT TPS53211_TRANS_S18 
R_R271         GND OCBOTLBAR  100MEG  
R_R268         GND N16778265  100MEG  
R_R275         GND DL  100MEG  
X_U103         OC20M N18102021 INV_BASIC_GEN PARAMS: VDD=5 VSS=0 VTHRESH=2.5
X_U635         N180550171 OC30M OCBOTLIM OR2_BASIC_GEN PARAMS: VDD=5 VSS=0
+  VTHRESH=2.5
X_U88         QSET N18181296 INV_BASIC_GEN PARAMS: VDD=5 VSS=0 VTHRESH=2.5
R_R13         DL N17776861  10  
X_U633         NCLEVENT NCL N17680009 OR2_BASIC_GEN PARAMS: VDD=5 VSS=0
+  VTHRESH=2.5
X_S16    ENZC GND N17821327 COMPSH TPS53211_TRANS_S16 
E_ABM4         N17501055 0 VALUE { if( V(BOTON) > 2.5,  
+ V(PHASE),0)   }
R_R273         GND OCLSDNB  100MEG  
G_ABM2I6         2P73 RAMPR VALUE { if(V(ENZC) > 2.5, V(OSCRAMP)* 0.8,
+  V(OSCRAMP))    }
G_G6         2P73 SS OSCRAMP GND 3.125m
R_R6         N16778484 COMP  5Meg  
R_R40         GND N18055063  1e8 TC=0,0 
R_R11         OCBOT N16989417  100  
X_S15    N17680148 GND N17680082 COUNT TPS53211_TRANS_S15 
R_R12         LLO N17501055  100  
X_U597         OC20M N18119428 N18124215 OCRESCOUNT srlatchrhp_basic_gen
+  PARAMS: VDD=5 VSS=0 VTHRESH=2.5
C_C9         DL GND  10p IC=0 TC=0,0 
X_U99         PO POR INV_BASIC_GEN PARAMS: VDD=5 VSS=0 VTHRESH=2.5
X_U631         CLKSET N17392349 N17387093 N17390513 srlatchshp_basic_gen
+  PARAMS: VDD=5 VSS=0 VTHRESH=2.5
E_ABM24         N17790551 0 VALUE { if(V(RAMPF)< V(COMP), 5,0)    }
R_R279         GND PENR  100MEG  
V_V6         N17615048 GND 2.73
C_C5         OCBOT GND  10p IC=0 TC=0,0 
R_R272         P73 RAMPR  1e9  
X_S10    LDRV_PRE GND VCCD LGATE TPS53211_TRANS_S10 
C_C10         N16778484 COMP  1p IC=0 
E_E8         VCCD GND VCCDR GND 1
C_C6         LLO GND  100p IC=0 TC=0,0 
E_ABM75         N18055121 0 VALUE { if(V(OCEVENT)>2.5  
+ & V(OCCOUNT) <5.5 & V(SSEND) >2.5, 1,0)   }
R_R29         GND N16918153  1Meg  
R_R277         N17972526 N17975249  1 TC=0,0 
X_U13         SS 2P73 d_d1 PARAMS:
E_ABM7         OSCRAMP 0 VALUE { ( V(N17993530) +   
+ V(N17991839))   }
X_U632         NCL TOPON DLb N17776861 srlatchrhp_basic_gen PARAMS:
+  VDD=5 VSS=0 VTHRESH=2.5
X_U81         PEN N18079465 PENR AND2_BASIC_GEN PARAMS: VDD=5 VSS=0 VTHRESH=2.5
G_ABM2I1         N17464014 2P73 VALUE { if(V(ENZC) > 2.5, V(OSCRAMP)* 0.8,
+  V(OSCRAMP))    }
R_R39         GND N17680082  1e8 TC=0,0 
R_R9         ENSS EN  10k  
C_C1         RAMPR P73  10p  TC=0,0 
R_R30         GND N16917943  1Meg  
X_U102         PEN N180794740 INV_BASIC_GEN PARAMS: VDD=5 VSS=0 VTHRESH=2.5
X_S11    N16786641 GND LGATE GND TPS53211_TRANS_S11 
G_ABMII6         VCC N18055063 VALUE { if(V(OCEVENT)>2.5, .05,0)    }
X_S3    RSET GND N17464014 2P73 TPS53211_TRANS_S3 
C_C2         SS GND  10p  TC=0,0 
X_U589         N180794740 N18079465 BUF_DELAY_BASIC_GEN PARAMS: VDD=5 VSS=0
+  VTHRESH=2.5 DELAY=1u
X_U84         N17387093 N173885651 CLKRES AND2_BASIC_GEN PARAMS: VDD=5 VSS=0
+  VTHRESH=2.5
R_R8         GND ENSS  1e8  
E_ABM73         N17680148 0 VALUE { if(V(NCLEVENT)>2.5  
+ & V(COUNT) <5.5 & V(PGOODen) >2.5, 1,0)   }
E_ABM27         2P73 0 VALUE { if(V(N17615048)< 2.5, 0,2.73)    }
X_U587         N17793867 CLKSET BUF_DELAY_BASIC_GEN PARAMS: VDD=5 VSS=0
+  VTHRESH=2.5 DELAY=10n
C_C16         GND OCCOUNT  3n IC=0 TC=0,0 
X_U93         UVP UVPCLEAR INV_BASIC_GEN PARAMS: VDD=5 VSS=0 VTHRESH=2.5
X_U79         N17628550 OCLSDNB N18181296 N18180000 AND3_BASIC_GEN PARAMS:
+  VDD=5 VSS=0 VTHRESH=2.5
G_ABMII5         VCC N17680082 VALUE { if(V(NCLEVENT)>2.5, .03,0)    }
X_U110         N18210830 PRES N18208681 AND2_BASIC_GEN PARAMS: VDD=5 VSS=0
+  VTHRESH=2.5
E_ABM12         N16918182 0 VALUE { IF(V(FB) > 0.904 &  
+ V(PO) >2.5,5,0)   }
X_S13    PO GND PGD GND TPS53211_TRANS_S13 
R_R274         2P73 N17464014  1e9  
X_U89         HDRV_PRE N16778470 INV_BASIC_GEN PARAMS: VDD=5 VSS=0 VTHRESH=2.5
E_ABM3         N16989417 0 VALUE { if( V(LGATE) > 2.5,  
+ V(N16985841),0)   }
X_U573         N16918182 N16918058 BUF_DELAY_BASIC_GEN PARAMS: VDD=5 VSS=0
+  VTHRESH=2.5 DELAY=2.3u
C_C15         GND COUNT  3n IC=0 TC=0,0 
E_E5         N16985841 GND CSP CSN 1
X_U86         PGEN N17663966 PGOODEN AND2_BASIC_GEN PARAMS: VDD=5 VSS=0
+  VTHRESH=2.5
R_R50         VCC OCCOUNT  1e9 TC=0,0 
X_U191         N173874830 N173885651 BUFFER_PS PARAMS: VHI=5 VLO=0 VTHRESH=2.5
+  TPLH=1n TPHL=150n TR=1E-9 TF=1E-9
X_U90         N16778979 N16778443 INV_BASIC_GEN PARAMS: VDD=5 VSS=0 VTHRESH=2.5
R_R278         GND OSC  1e11  
R_R3         EN VCC  1.6Meg TC=0,0 
X_U192         N16778235 QSET BUFFER_PS PARAMS: VHI=5 VLO=0 VTHRESH=2.5
+  TPLH=50n TPHL=10n TR=1E-9 TF=1E-9
X_U91         CLKSET SSET INV_BASIC_GEN PARAMS: VDD=5 VSS=0 VTHRESH=2.5
X_U578         N16918011 N16917943 UVLATCH N169178991 srlatchrhp_basic_gen
+  PARAMS: VDD=5 VSS=0 VTHRESH=2.5
X_S14    N17666387 GND PGOOD GND TPS53211_TRANS_S14 
C_C8         PGD GND  10p  TC=0,0 
E_ABM11         N16918217 0 VALUE { IF(V(FB) < 0.696 &  
+ V(SSEND) >2.5,5,0)   }
E_ABM28         N17792092 0 VALUE { if(V(RAMPR)>2.73, 5,0)    }
E_ABM29         N17993530 0 VALUE { if(V(PEN)>2.5, 4.1u,0)    }
X_U637         N18175383 PENR OCLsdn OCLSDNB srlatchshp_basic_gen PARAMS:
+  PARAMS: VDD=5 VSS=0 VTHRESH=2.5
X_U107         OCRESCOUNT PO N18055136 AND2_BASIC_GEN PARAMS: VDD=5 VSS=0
+  VTHRESH=2.5
R_R285         GND TSS  1e9 TC=0,0 
R_R26         GND N169178991  1Meg  
X_U98         DL OCBOTLATCH OCLSD AND2_BASIC_GEN PARAMS: VDD=5 VSS=0
+  VTHRESH=2.5
X_U109         OCBOTLATCH NCL N18175383 AND2_BASIC_GEN PARAMS: VDD=5 VSS=0
+  VTHRESH=2.5
R_R269         GND N17390513  100MEG  
X_S9    PEN GND TSS GND TPS53211_TRANS_S9 
X_U577         N16918217 N16918011 BUF_DELAY_BASIC_GEN PARAMS: VDD=5 VSS=0
+  VTHRESH=2.5 DELAY=80u
V_V4         N16778484 FBG .5
X_U105         HIEDGE DL RESCOUNT AND2_BASIC_GEN PARAMS: VDD=5 VSS=0
+  VTHRESH=2.5
C_C3         ENSS GND  10p IC=0 TC=0,0 
X_U106         PGOODEN ENZC N17689239 AND2_BASIC_GEN PARAMS: VDD=5 VSS=0
+  VTHRESH=2.5
X_U634         OCEVENT OC20M N18054993 OR2_BASIC_GEN PARAMS: VDD=5 VSS=0
+  VTHRESH=2.5
X_U10         RAMPR 2P73 d_d1 PARAMS:
R_R47         VCC COUNT  1e9 TC=0,0 
X_U83         UVLATCH SSEND UVP AND2_BASIC_GEN PARAMS: VDD=5 VSS=0 VTHRESH=2.5
X_U638         UGATE N18215754 PRES N18215702 srlatchshp_basic_gen PARAMS:
+  PARAMS: VDD=5 VSS=0 VTHRESH=5
E_ABM6         N17628550 0 VALUE { if( V(N17689239) > 2.5,  
+ V(DL),5)   }
G_G5         2P73 PGD OSCRAMP GND 1.282m
E_E6         NCL GND N17539205 GND 1
X_U72         OVPCLEAR NOOCTOP UVPCLEAR TOPON AND3_BASIC_GEN PARAMS: VDD=5
+  VSS=0 VTHRESH=2.5
E_ABM59         OC30M 0 VALUE { if(V(OCBOT)>0.03, 5,0)    }
X_U575         N169181740 DISCH BUF_DELAY_BASIC_GEN PARAMS: VDD=5 VSS=0
+  VTHRESH=2.5 DELAY=0.5u
X_S19    PO GND COMP N16778484 TPS53211_TRANS_S19 
E_ABM21         SSEND 0 VALUE { if(V(VREF_GM)>0.78, 5,0)    }
X_U580         TOPON HIEDGE N17691781 MONOPOS_PS PARAMS: PW=10n
C_C7         TSS GND  10p  TC=0,0 
E_ABM57         PO 0 VALUE { if(V(TSS)>1, 5,0)    }
E_ABM58         PGEN 0 VALUE { if(V(PGD)>1, 5,0)    }
X_U581         N17680009 NCLEVENT N17680012 MONOPOS_PS PARAMS: PW=300n
X_U582         N18054993 OCEVENT N18054996 MONOPOS_PS PARAMS: PW=300n
X_U75         BOTON ENSS N16786610 LDRV_PRE AND3_BASIC_GEN PARAMS: VDD=5 VSS=0
+  VTHRESH=2.5
X_H1    N17975249 OSC N17991839 GND TPS53211_TRANS_H1 
R_R281         GND N18215702  100MEG  
R_R45         GND N17691781  1e8  
E_ABM2         PEN 0 VALUE { if( V(ENSS) > 2.5 &  
+ V(VCC) >4.3,5,0)   }
X_U12         PGD 2P73 d_d1 PARAMS:
E_ABM26         RAMPF 0 VALUE { LIMIT(V(N17464014),V(COMPSH), 2.73)    }
.ends

.subckt TPS53211_TRANS_S2 1 2 3 4  
S_S2         3 4 1 2 _S2
RS_S2         1 2 1G
.MODEL         _S2 VSWITCH Roff=1e9 Ron=1m Voff=2 Von=3
.ends TPS53211_TRANS_S2

.subckt TPS53211_TRANS_S6 1 2 3 4  
S_S6         3 4 1 2 _S6
RS_S6         1 2 1G
.MODEL         _S6 VSWITCH Roff=1e11 Ron=1 Voff=2.4 Von=2.6
.ends TPS53211_TRANS_S6

.subckt TPS53211_TRANS_S12 1 2 3 4  
S_S12         3 4 1 2 _S12
RS_S12         1 2 1G
.MODEL         _S12 VSWITCH Roff=1e11 Ron=60 Voff=2.4 Von=2.6
.ends TPS53211_TRANS_S12

.subckt TPS53211_TRANS_S1 1 2 3 4  
S_S1         3 4 1 2 _S1
RS_S1         1 2 1G
.MODEL         _S1 VSWITCH Roff=1e9 Ron=1m Voff=2 Von=3
.ends TPS53211_TRANS_S1

.subckt TPS53211_TRANS_S17 1 2 3 4  
S_S17         3 4 1 2 _S17
RS_S17         1 2 1G
.MODEL         _S17 VSWITCH Roff=1e11 Ron=1.0m Voff=2.25 Von=2.75
.ends TPS53211_TRANS_S17

.subckt TPS53211_TRANS_S7 1 2 3 4  
S_S7         3 4 1 2 _S7
RS_S7         1 2 1G
.MODEL         _S7 VSWITCH Roff=1e11 Ron=0.5 Voff=2.4 Von=2.6
.ends TPS53211_TRANS_S7

.subckt TPS53211_TRANS_S8 1 2 3 4  
S_S8         3 4 1 2 _S8
RS_S8         1 2 1G
.MODEL         _S8 VSWITCH Roff=1e11 Ron=1.0m Voff=2.25 Von=2.75
.ends TPS53211_TRANS_S8

.subckt TPS53211_TRANS_S5 1 2 3 4  
S_S5         3 4 1 2 _S5
RS_S5         1 2 1G
.MODEL         _S5 VSWITCH Roff=1e11 Ron=10 Voff=2 Von=3
.ends TPS53211_TRANS_S5

.subckt TPS53211_TRANS_S4 1 2 3 4  
S_S4         3 4 1 2 _S4
RS_S4         1 2 1G
.MODEL         _S4 VSWITCH Roff=1e9 Ron=1m Voff=2 Von=3
.ends TPS53211_TRANS_S4

.subckt TPS53211_TRANS_S18 1 2 3 4  
S_S18         3 4 1 2 _S18
RS_S18         1 2 1G
.MODEL         _S18 VSWITCH Roff=1e11 Ron=10m Voff=0.0V Von=1.0V
.ends TPS53211_TRANS_S18

.subckt TPS53211_TRANS_S16 1 2 3 4  
S_S16         3 4 1 2 _S16
RS_S16         1 2 1G
.MODEL         _S16 VSWITCH Roff=1e9 Ron=1m Voff=2.6 Von=2.4
.ends TPS53211_TRANS_S16

.subckt TPS53211_TRANS_S15 1 2 3 4  
S_S15         3 4 1 2 _S15
RS_S15         1 2 1G
.MODEL         _S15 VSWITCH Roff=1e11 Ron=10m Voff=0.0V Von=1.0V
.ends TPS53211_TRANS_S15

.subckt TPS53211_TRANS_S10 1 2 3 4  
S_S10         3 4 1 2 _S10
RS_S10         1 2 1G
.MODEL         _S10 VSWITCH Roff=1e11 Ron=0.7 Voff=2.4 Von=2.6
.ends TPS53211_TRANS_S10

.subckt TPS53211_TRANS_S11 1 2 3 4  
S_S11         3 4 1 2 _S11
RS_S11         1 2 1G
.MODEL         _S11 VSWITCH Roff=1e11 Ron=0.33 Voff=2.4 Von=2.6
.ends TPS53211_TRANS_S11

.subckt TPS53211_TRANS_S3 1 2 3 4  
S_S3         3 4 1 2 _S3
RS_S3         1 2 1G
.MODEL         _S3 VSWITCH Roff=1e9 Ron=1m Voff=2.4 Von=2.6
.ends TPS53211_TRANS_S3

.subckt TPS53211_TRANS_S13 1 2 3 4  
S_S13         3 4 1 2 _S13
RS_S13         1 2 1G
.MODEL         _S13 VSWITCH Roff=1e11 Ron=1m Voff=2.6 Von=2.4
.ends TPS53211_TRANS_S13

.subckt TPS53211_TRANS_S14 1 2 3 4  
S_S14         3 4 1 2 _S14
RS_S14         1 2 1G
.MODEL         _S14 VSWITCH Roff=1e11 Ron=10 Voff=2.4 Von=2.6
.ends TPS53211_TRANS_S14

.subckt TPS53211_TRANS_S9 1 2 3 4  
S_S9         3 4 1 2 _S9
RS_S9         1 2 1G
.MODEL         _S9 VSWITCH Roff=1e9 Ron=1m Voff=2.6 Von=2.4
.ends TPS53211_TRANS_S9

.subckt TPS53211_TRANS_S19 1 2 3 4  
S_S19         3 4 1 2 _S19
RS_S19         1 2 1G
.MODEL         _S19 VSWITCH Roff=1e9 Ron=1m Voff=2.6 Von=2.4
.ends TPS53211_TRANS_S19

.subckt TPS53211_TRANS_H1 1 2 3 4  
H_H1         3 4 VH_H1 0.2
VH_H1         1 2 0V
.ends TPS53211_TRANS_H1

.subckt d_d2 1 2

d1 1 2 dd2

.model dd2 d
+ is=1e-015
+ tt=1e-011
+ rs=0.01
+ n=0.01

.ends d_d2

.subckt d_d1 1 2

d1 1 2 dd1

.model dd1 d
+ is=1e-015
+ tt=1e-011
+ rs=0.01
+ n=0.01

.ends d_d1

.SUBCKT AND2_BASIC_GEN A B Y PARAMS: VDD=5 VSS=0 VTHRESH=2.5 
E_ABMGATE    YINT 0 VALUE {{IF(V(A) > {VTHRESH}  &  
+ V(B) > {VTHRESH},{VDD},{VSS})}}
RINT YINT Y 1
CINT Y 0 1n
.ENDS AND2_BASIC_GEN
*$
.SUBCKT AND3_BASIC_GEN A B C Y PARAMS: VDD=5 VSS=0 VTHRESH=2.5 
E_ABMGATE    YINT 0 VALUE {{IF(V(A) > {VTHRESH}  &  
+ V(B) > {VTHRESH} &
+ V(C) > {VTHRESH},{VDD},{VSS})}}
RINT YINT Y 1
CINT Y 0 1n
.ENDS AND3_BASIC_GEN
*$
.SUBCKT OR2_BASIC_GEN A B Y PARAMS: VDD=1 VSS=0 VTHRESH=0.5 
E_ABMGATE    YINT 0 VALUE {{IF(V(A) > {VTHRESH}  |  
+ V(B) > {VTHRESH},{VDD},{VSS})}}
RINT YINT Y 1
CINT Y 0 1n
.ENDS OR2_BASIC_GEN
*$
.SUBCKT INV_BASIC_GEN A  Y PARAMS: VDD=5 VSS=0 VTHRESH=2.5 
E_ABMGATE    YINT 0 VALUE {{IF(V(A) > {VTHRESH} , 
+ {VSS},{VDD})}}
RINT YINT Y 1
CINT Y 0 1n
.ENDS INV_BASIC_GEN
*$
.SUBCKT BUF_DELAY_BASIC_GEN A  Y PARAMS: VDD=5 VSS=0 VTHRESH=2.5
+ DELAY = 10n 
E_ABMGATE1    YINT1 0 VALUE {{IF(V(A) > {VTHRESH} , 
+ {VDD},{VSS})}}
RINT YINT1 YINT2 1
CINT YINT2 0 {DELAY*1.3}
E_ABMGATE2    YINT3 0 VALUE {{IF(V(YINT2) > {VTHRESH} , 
+ {VDD},{VSS})}}
RINT2 YINT3 Y 1
CINT2 Y 0 1n
.ENDS BUF_DELAY_BASIC_GEN
*$
.SUBCKT SRLATCHSHP_BASIC_GEN S R Q QB PARAMS: VDD=5 VSS=0 VTHRESH=2.5 
Rs S 0 1e11
Rr R 0 1e11
GQ 0 Qint VALUE = {IF(V(S) > {VTHRESH},5,IF(V(R)>{VTHRESH},-5, 0))}
CQint Qint 0 1n
RQint Qint 0 1000MEG
D_D10 Qint MY5 D_D1
V1 MY5 0 {VDD}
D_D11 MYVSS Qint D_D1
V2 MYVSS 0 {VSS} 
EQ Qqq 0 Qint 0 1
X3 Qqq Qqqd1 BUF_BASIC_GEN PARAMS: VDD={VDD} VSS={VSS} VTHRESH={VTHRESH}
RQq Qqqd1 Q 1
EQb Qbr 0 VALUE = {IF( V(Q) > {VTHRESH}, {VSS},{VDD})}
RQb Qbr QB 1 
Cdummy1 Q 0 1n 
Cdummy2 QB 0 1n 
.IC V(Qint) {VSS}
.MODEL D_D1 D( IS=1e-15 TT=10p Rs=0.05 N=.1  )
.ENDS SRLATCHSHP_BASIC_GEN
*$
.SUBCKT SRLATCHRHP_BASIC_GEN S R Q QB PARAMS: VDD=5 VSS=0 VTHRESH=2.5 
Rs S 0 1e11
Rr R 0 1e11
GQ 0 Qint VALUE = {IF(V(R) > {VTHRESH},-5,IF(V(S)>{VTHRESH},5, 0))}
CQint Qint 0 1n
RQint Qint 0 1000MEG
D_D10 Qint MY5 D_D1
V1 MY5 0 {VDD}
D_D11 MYVSS Qint D_D1
V2 MYVSS 0 {VSS} 
EQ Qqq 0 Qint 0 1
X3 Qqq Qqqd1 BUF_BASIC_GEN PARAMS: VDD={VDD} VSS={VSS} VTHRESH={VTHRESH}
RQq Qqqd1 Q 1
EQb Qbr 0 VALUE = {IF( V(Q) > {VTHRESH}, {VSS},{VDD})}
RQb Qbr QB 1 
Cdummy1 Q 0 1n 
Cdummy2 QB 0 1n
.IC V(Qint) {VSS}
.MODEL D_D1 D( IS=1e-15 TT=10p Rs=0.05 N=.1  )
.ENDS SRLATCHRHP_BASIC_GEN
*$
.SUBCKT MONOPOS_PS in Q Qn PARAMS: PW=250u 
VS VSUP 0 DC 5
r1 IN 0 1e11
GIN VSUP YA VALUE={IF(V(IN)>2.5, V(VSUP)/1000K, 0)}
GDIS YA 0 VALUE={IF(V(IN)>2.5,0, V(YA)/1m)}
CIN YA 0 1n IC=0
RIN YA 0 1e11
EABM1 YTD 0 VALUE={IF(V(YA)> {PW*1000}, 5, 0)}
RYTD YTD 0 1e11
EXOR P 0 VALUE={IF(V(YTD) > 2.5 ^ V(IN) > 2.5, 5, 0)}
ROUTpp2 P 0 1e11
EAND1 Q1 0 VALUE={ IF(V(P)>2.5 & V(IN)>2.5, 5, 0)}
Ro1 Q1 Q 1m
Co1 Q 0 1p
ROUT2 Q 0 1e11
EAND2 Qn1 0 VALUE={ IF(V(Q)>2.5, 0, 5)}
Ro2 Qn1 Qn 1m
Co2 Qn 0 1p
ROUT4 Qn 0 1e11
.ENDS MONOPOS_PS
*$
.SUBCKT MONONEG_PS in Q Qn PARAMS: PW=250u 
VS VSUP 0 DC 1
r1 IN 0 1e11
RS VSUP 0 1e11
GIN VSUP YA VALUE={IF(V(IN)<2.5, V(VSUP)/1000K, 0)}
GDIS YA 0 VALUE={IF(V(IN)<2.5,0, V(YA)/1m)}
CIN YA 0 1n IC=1
RIN YA 0 1e11
EABM1 YTD 0 VALUE={IF(V(YA)> {PW*1000}, 0, 5)}
RYTD YTD 0 1e11
EXOR P 0 VALUE={IF(V(YTD) > 2.5 ^ V(IN) > 2.5, 5, 0)}
ROUTpp2 P 0 1e11
EAND1 Q1 0 VALUE={ IF(V(P)>2.5 & V(YTD)>2.5, 5, 0)}
Ro1 Q1 Q 1m
Co1 Q 0 1p IC=0
ROUT2 Q 0 1e11
EAND2 Qn1 0 VALUE={ IF(V(Q)>0.5, 0, 5)}
Ro2 Qn1 Qn 1m
Co2 Qn 0 1p
ROUT4 Qn 0 1e11
.ENDS MONONEG_PS
*$
.SUBCKT BUFFER_PS A Y PARAMS: vhi=1 vlo=0 vthresh=500e-3
+ tplh=1e-9 tphl=1e-9 tr=1e-9 tf=1e-9
RA A 0 1e11
CA A 0 0.01pF
VS VSUP 0 DC 1
EBUF1 Ypp 0 VALUE={IF(V(A) > ({vthresh}), 1, 0)}
ROUTpp Ypp 0 1e11
XNSW1 OUTp Ypp 0 NSW_PS PARAMS: RONval={(tplh+1e-15)/(1e-12*0.693)} VTHval=0.5
XPSW1 OUTp Ypp VSUP PSW_PS PARAMS: RONval={(tphl+1e-15)/(1e-12*0.693)} VTHval=0.5
CDEL1 OUTp 0 1pF
ETHRESH Yp 0 VALUE={IF(V(OUTp) > 0.5, 1, 0)}
ROUTp Yp 0 1e11
XNSW2 OUTr Yp 0 NSW_PS PARAMS: RONval={(tf+1e-15)/(1e-12*2.3)} VTHval=0.5
XPSW2 OUTr Yp VSUP PSW_PS PARAMS: RONval={(tr+1e-15)/(1e-12*2.3)} VTHval=0.5
CDEL2 OUTr 0 1pF
EOUT OUTf 0 VALUE={V(OUTr)*({vhi} - {vlo})+{vlo}}
RDR OUTf Y  1000
RO Y 0 1e11
.ENDS BUFFER_PS
*$
.SUBCKT NSW_PS D G S PARAMS: RONval=10k VTHval=0.7 VCHARval=0.01
+ CGval=0.01pF CDval=0.01pF 
RDDUM D 0 1e11
RSDUM S 0 1e11
RGDUM G 0 1e11
CG G D {CGval}
CD D S {CDval}
EEXP F1 0 VALUE={LIMIT(((V(G,S)-VTHval)/VCHARval),-80,80)} 
GOUT D S VALUE={V(D,S)/(RONval*(1+EXP(-LIMIT(((V(G,S)-VTHval)/VCHARval),-80,80))))}
.ENDS NSW_PS
*$
.SUBCKT PSW_PS D G S PARAMS: RONval=10k VTHval=0.7 VCHARval=0.01
+ CGval=0.01pF CDval=0.01pF 
RDDUM D 0 1e11
RSDUM S 0 1e11
RGDUM G 0 1e11
CG G D {CGval}
CD D S {CDval}
EEXP F1 0 VALUE={LIMIT(((V(S,G)-VTHval)/VCHARval),-80,80)} 
GOUT S D VALUE={V(S,D)/(RONval*(1+EXP(-LIMIT(((V(S,G)-VTHval)/VCHARval),-80,80))))}
.ENDS PSW_PS
*$
.SUBCKT BUF_BASIC_GEN A  Y PARAMS: VDD=5 VSS=0 VTHRESH=2.5 
E_ABMGATE    YINT 0 VALUE {{IF(V(A) > {VTHRESH} , 
+ {VDD},{VSS})}}
RINT YINT Y 1
CINT Y 0 1n
.ENDS BUF_BASIC_GEN
*$