*$
* PSpice Model Editor - Version 16.0.0
*****************************************************************************
* (C) Copyright 2012 Texas Instruments Incorporated. All rights reserved.  
*****************************************************************************
** This model is designed as an aid for customers of Texas Instruments.    
** TI and its licensors and suppliers make no warranties, either expressed 
** or implied, with respect to this model, including the warranties of     
** merchantability or fitness for a particular purpose. The model is       
** provided solely on an "as is" basis. The entire risk as to its quality  
** and performance is with the customer.                                   
*****************************************************************************
* 
* Released by: webench Design Center, Texas Instruments Inc.
* Part: TPS51313
* Date: 09AUG2012
* Model Type: TRANSIENT
* Simulator: PSpice
* Simulator Version: 16.0.0.p001
*
***************************************************************************
*
* Updates: 
*
* Final 1.00
* Release to Web.
*
***************************************************************************
.SUBCKT TPS51313_TRANS EN VFB_VO SW MODE PGOOD VCC VIN GND_0 PARAMS: FASTSS=1
X_U208         ENCIR ENCIRD BUFFER_PS PARAMS: VHI=1 VLO=0 VTHRESH=500E-3
+  TPLH=50u TPHL=2E-9 TR=1E-9 TF=1E-9
X_S8    EN GND VREF GND TPS51313_S8 
X_U582         N17964862 N22194288 N22151333 COMP_BASIC_GEN PARAMS: VDD=1 VSS=0
+  VTHRESH=0.5
X_U268         N16786563 ENCIRD N16782419 TBLNK NAND3_PS PARAMS: VHI=1 VLO=0
+  VTHRESH=500E-3 TPLH=1E-9 TPHL=1E-9 TR=1E-9 TF=1E-9
R_R18         GND ENHI_RECAL  1E8  
C_C43         COMP GND  4p IC=0 
X_U193         N16784151 DQOS BUFFER_PS PARAMS: VHI=1 VLO=0 VTHRESH=500E-3
+  TPLH=2E-9 TPHL=2E-9 TR=1E-9 TF=1E-9
X_S11    N219818361 GND N21981829 GND TPS51313_S11 
R_R39         GND N21972901  1e8 TC=0,0 
R_R44         GND N19507159  1e8  
C_C4         SW VBST  .1u IC=0 TC=0,0 
X_U212         ENCIR ENGm BUFFER_PS PARAMS: VHI=1 VLO=0 VTHRESH=500E-3
+  TPLH=100u TPHL=2n TR=1E-9 TF=1E-9
E_ABM81         N22194288 0 VALUE { ( V(VFB)  
+ + V(CSP) *0.87 )    }
X_U242         BLNKM N16783633 OCLDIS OR
C_C17         GND ZCCOUNT  3n IC=0 TC=0,0 
E_ABM52         DISCH 0 VALUE { if( V(UVP)>0.5 |  
+ V(UVP) >0.5 |  
+ V(EN) <0.5, 1,0)  }
V_V91         N16831638 GND 0.6
X_U288         HIEDGE ZCOFF RESCOUNT AND
X_U256         N171409951 LUP INVERTER
X_U580         HIDRIVE HIEDGE N19599433 MONOPOS_PS PARAMS: PW=10n
X_U238         ENCIRD OCL N16783633 AND
E_U1_ABM24         U1_FIXVO1P8 0 VALUE { if( V(MODE) < .5,1,0)    }
G_U1_ABMII1         U1_N16775979 MODE VALUE { if(V(ENCIR)>0.5, 10u,0)    }
X_U1_U251         U1_FIXVO1P8 U1_FIXVO1 FIXVO OR
E_U1_ABM25         U1_FIXVO1 0 VALUE { if( V(MODE) > V(VCC) + 1.5 & V(MODE) <
+  V(VCC) + 1.8,1,0)    }
E_U1_ABM38         VFB 0 VALUE { if( V(FIXVO)<0.5,  
+ V(VFB_VO),  
+ V(U1_N16774192) )  }
R_U1_Rddr1         U1_N16774192 U1_N16774387  1500k TC=0,0 
V_U1_V1         U1_N16775979 GND 10
R_U1_Rddr2         U1_N16774387 VFB_VO  2500k TC=0,0 
R_U1_Rddr         GND U1_N16774192  2000k TC=0,0 
X_U1_S7    U1_FIXVO1 GND VFB_VO U1_N16774387 MODESEL_U1_S7 
E_U1_ABM39         CCM 0 VALUE { if( V(MODE) > V(VCC) -0.1 &  
+ V(MODE) < V(VCC) +1.7, 1,0)   }
X_U1_U20         MODE U1_N16775979 d_d1 PARAMS:
R_U1_R19         MODE GND  1e15 TC=0,0 
X_U313         N22239510 SSEND NCLeveB AND
R_R24         GND TON  10Meg TC=0,0 
E_ABM73         N21972967 0 VALUE { if(V(NCLEVENT)>0.5  
+ & V(COUNT) <8.5, 1,0)   }
X_U292         RESS5 RESS5_TEMP RESS5_FINAL OR
X_U253         ZCOFF N19701655 INVERTER
E_ABM83         VSEL 0 VALUE { if( V(FIXVO) <0.5,  
+ V(CSN),  
+ V(VFB_VO) )  }
R_R30         VCC V5FILT  3.32  
E_E12         VREF GND N20350089 GND 1
X_S15    XLOWDRIVE GND DRVL GND TPS51313_S15 
R_R52         N22210785 ZCCOUNT  1e9 TC=0,0 
X_S13    HIDRIVE GND VBST DRVH TPS51313_S13 
X_U267         TBLNK N16786563 TOS TOS NAND3_PS PARAMS: VHI=1 VLO=0
+  VTHRESH=500E-3 TPLH=1E-9 TPHL=1E-9 TR=1E-9 TF=1E-9
X_U295         N16785572 DRVHPREBIAS HIDRIVE NAND2_PS PARAMS: VHI=1 VLO=0
+  VTHRESH=500E-3 TPLH=1E-9 TPHL=1E-9 TR=1E-9 TF=1E-9
V_V92         N22210785 GND 2.5
X_U1         N18716288 COMP d_d2 PARAMS:
X_U266         N16783546 ON TOS ENCIRD NAND3_PS PARAMS: VHI=1 VLO=0
+  VTHRESH=500E-3 TPLH=1E-9 TPHL=1E-9 TR=1E-9 TF=1E-9
G_ABMII5         N21972970 N21972901 VALUE { if(V(NCLEVENT)>0.5, .01,0)    }
C_CFILT         GND V5FILT  1u IC=0 
X_U293         OVP N21015683 FCCM OR
X_U16         VCC VBST d_d2 PARAMS:
X_U262         ZCOFF N16787311 TBLNKB ENCIRD NAND3_PS PARAMS: VHI=1 VLO=0
+  VTHRESH=500E-3 TPLH=1E-9 TPHL=1E-9 TR=1E-9 TF=1E-9
R_R12         GND N16831479  1e11  
E_ABM15         N21002511 0 VALUE { if( V(LLO)  
+ > V(MODECHECK) ,1,0)   }
X_U310         ENCIRD OV OVD AND
E_ABM78         N22027234 0 VALUE { (V(CSN) + 100m)    }
X_U264         N16787246 N16784805 N16785572 SSEND NAND3_PS PARAMS: VHI=1 VLO=0
+  VTHRESH=500E-3 TPLH=1E-9 TPHL=1E-9 TR=1E-9 TF=1E-9
C_C15         GND COUNT  3n IC=0 TC=0,0 
R_R32         N18346277 IINFO  600k TC=0,0 
E_ABM10         DRVHON 0 VALUE { if(V(DRVH)>5,1,0)    }
R_R37         N21588656 N21588666  800k TC=0,0 
X_U29         TON V5FILT d_d1 PARAMS:
E_E9         CSN GND N21588605 GND 1
C_C14         LLO GND  10p  TC=0,0 
G_G5         N20350084 N20350089 TABLE { V(N20350084, N20350089) } 
+ ( (-10,-300u)(-1m,-295u)(0,0)(1m,295u)(10,300u) )
X_U2         COMP N18716279 d_d2 PARAMS:
E_ABM2         SSEND 0 VALUE { if(V(N21981829)>0.6, 1,0)    }
X_S14    N21735245 GND DRVH SW TPS51313_S14 
V_V77         N16785608 GND 3.3
E_ABM46         UVP 0 VALUE { if( V(UVLATCH)>0.5 &  
+ V(SSEND) >0.5, 1,0)   }
E_ABM30         HYSTVAL 0 VALUE { V(N16831638) * 0.1    }
X_U192         DRVL N16785290 BUFFER_PS PARAMS: VHI=1 VLO=0 VTHRESH=2.5
+  TPLH=2E-9 TPHL=2E-9 TR=1E-9 TF=1E-9
X_U270         N16785290 N167834301 N16786910 NOR2
E_ABM12         N17093250 0 VALUE { if( V(FCCM)>0.5,  
+ -V(OCLTHR) ,  
+ V(GND) )  }
R_R26         N201814081 TON  100 TC=0,0 
V_V88         N21972970 GND 16.5
X_U240         NCL NCLB INVERTER
X_U583         N22210652 NCLBCOUNT N22210669 MONOPOS_PS PARAMS: PW=305n
E_ABM9         N20304327 0 VALUE { if( V(DRVL)>2.5 & V(SW) <0.5,  
+ V(SW),  
+ V(GND) )  }
X_U188         TBLNK N16783564 BUFFER_PS PARAMS: VHI=1 VLO=0 VTHRESH=500E-3
+  TPLH=30E-9 TPHL=2E-9 TR=1E-9 TF=1E-9
X_S16    LOWDRIVE GND VCC DRVL TPS51313_S16 
C_C27         GND N21588666  7.8p  
E_ABM75         N19649280 0 VALUE { if(V(SSEND)<0.5, 1, V(ENZC))    }
X_U291         NCLBCOUNT RESCOUNT N22210652 OR
V_V93         SWINT N18346277 0Vdc
R_R17         GND ENHITOGG  1e11  
V_V87         MODECHECK N17093250 0
G_ABM2I2         V5FILT TON VALUE { if(V(DQOS)<0.25, V(SW)/100K,0)    }
R_R22         GND SSEND  1Meg  
X_U190         N22151333 LUPB BUFFER_PS PARAMS: VHI=1 VLO=0 VTHRESH=500E-3
+  TPLH=50n TPHL=50n TR=1E-9 TF=1E-9
E_E15         N21588656 GND SW GND 1
E_ABM19         N16786285 0 VALUE { if( V(N16785833)  
+ >V(TON) ,1,0)   }
X_U308         XLOWDRIVE N219727742 N21972785 AND
E_ABM18         N19575111 0 VALUE { if( V(HIDRIVE)> 0.5 |  
+  V(DRVHON)>0.5 |  
+ V(LOWDRIVE)>0.5, 1, 0 )  }
R_R9         LLO N20304327  100  
X_U273         PREBIAS N17638904 N17640744 N17640744 NAND3_PS PARAMS: VHI=1
+  VLO=0 VTHRESH=500E-3 TPLH=1E-9 TPHL=1E-9 TR=1E-9 TF=1E-9
X_U297         ENCIR ENHITOGG N20357811 MONOPOS_PS PARAMS: PW=100u
R_R47         N21972970 COUNT  1e9 TC=0,0 
X_U254         NCLEVE N22239510 INVERTER
G_ABM2I3         TON GND VALUE { if(V(DQOS) >.75, V(TON)/100,0)    }
X_U278         N16784151 N16786936 INVERTER
X_U299         N167823691 N16783764 INV_PS PARAMS: VHI=1 VLO=0 VTHRESH=500E-3
+  TPLH=150n TPHL=10E-9 TR=1E-9 TF=1E-9
X_U14         N21981829 N21981797 d_d1 PARAMS:
X_S2    DISCH GND SW GND TPS51313_S2 
X_U252         OVP NCL NCLPWM AND
X_U218         FORCEOFF N19538360 TOS AND
R_R45         GND N19599433  1e8  
R_R49         GND N22210669  1e8  
X_U581         N21972815 NCLEVENT N21972830 MONOPOS_PS PARAMS: PW=305n
X_U35         OVD OVS delay PARAMS: T=5000
X_F1    N20350132 N20350084 EN GND TPS51313_F1 
X_U191         N16786936 N16786693 BUFFER_PS PARAMS: VHI=1 VLO=0 VTHRESH=500E-3
+  TPLH=10n TPHL=20n TR=1E-9 TF=1E-9
X_U287         N17638904 PREBIAS PREBIAS ENCIR NAND3_PS PARAMS: VHI=1 VLO=0
+  VTHRESH=500E-3 TPLH=1E-9 TPHL=1E-9 TR=1E-9 TF=1E-9
X_U251         N19574016 N19575111 FORCEOFF OR
X_U309         SSEND UVD UVS AND
X_U275         DRVOFF DRVOFF N16784151 UVP HIDRIVE NOR4
C_C3         GND N21981829  1n IC=0 
X_U281         DRVHON N16786693 DRVHPREBIAS AND
E_E14         N18716279 GND BIASP GND 1
X_U244         LOOPRES NCLPWM N171409951 OR
E_ABM11         OCL 0 VALUE { if( V(OCLTHR)  
+ >V(LLO) ,1,0)   }
X_U296         BLNKM TBLNKB N16786905 NAND2_PS PARAMS: VHI=1 VLO=0
+  VTHRESH=500E-3 TPLH=1E-9 TPHL=1E-9 TR=1E-9 TF=1E-9
X_U17          V5FILT V5INOK COMP_HYS2 PARAMS:  TH=2.875 HYS=.15
X_U301         N219727742 XLOWDRIVE INV_PS PARAMS: VHI=1 VLO=0 VTHRESH=500E-3
+  TPLH=20n TPHL=20n TR=1E-9 TF=1E-9
X_U265         ON ONSET ONSET N16783546 NAND3_PS PARAMS: VHI=1 VLO=0
+  VTHRESH=500E-3 TPLH=1E-9 TPHL=1E-9 TR=1E-9 TF=1E-9
X_U220         N21745590 L_PGOOD INVERTER
X_U243         BLNKM NCLB N16787293 OR
E_ABM22         N20350132 0 VALUE { if(V(EN)>0.5, 2,0)    }
X_U49         SETFCCM RESFCCM ZCNOT ENZC srnandlatchshp_basic PARAMS:
X_U300         N16782419 N167823691 INV_PS PARAMS: VHI=1 VLO=0 VTHRESH=500E-3
+  TPLH=1E-9 TPHL=1E-9 TR=1E-9 TF=1E-9
C_C42         COMP N21926384  40p IC=0 
X_U15         N218988281 VIN d_d1 PARAMS:
X_U294         N16784151 ON N16786910 NAND2_PS PARAMS: VHI=1 VLO=0
+  VTHRESH=500E-3 TPLH=1E-9 TPHL=1E-9 TR=1E-9 TF=1E-9
X_U221         SSEND SSENDb INVERTER
R_R38         N21588666 N21588605  800k TC=0,0 
X_U277         N16783615 N16786967 N16786905 OR
X_U271         DRVHPREBIAS N167834541 N16783585 NOR2
C_C26         GND IINFO  5.6p  
X_U276         OVP N19318699 INVERTER
X_U209         N20357943 ENCIR BUFFER_PS PARAMS: VHI=1 VLO=0 VTHRESH=500E-3
+  TPLH=6u TPHL=2n TR=1E-9 TF=1E-9
X_S10    L_PGOOD GND PGOOD GND TPS51313_S10 
E_ABM65         SETFCCM 0 VALUE { if(V(ZCCOUNT)>1.5,1,0)    }
X_U13         N218988391 SW d_d1 PARAMS:
C_C28         GND N21588605  7.8p  
E_ABM48         OVP 0 VALUE { if( V(OVLATCH)>0.5 &  
+ V(ENCIRD) >0.5, 1,0)   }
X_U289         N16783615 N19701655 N19649280 N19649280 NAND3_PS PARAMS: VHI=1
+  VLO=0 VTHRESH=500E-3 TPLH=1E-9 TPHL=1E-9 TR=1E-9 TF=1E-9
X_U307         RESCOUNT NCLEVENTB RESS5_TEMP AND
G_ABM2I5         GND COMP VALUE { IF(V(ENCIRD) > 0.5, LIMIT((V(VSREF) -
+  V(VFB))*25u, -10u,10u),0)    }
X_U290         NCLEVENT N21972767 N21972815 OR
V_V3         N218988281 SW -250m
X_U302         RESS6 ENZC INV_PS PARAMS: VHI=1 VLO=0 VTHRESH=500E-3 TPLH=1u
+  TPHL=1u TR=1E-9 TF=1E-9
X_U272         N16783764 N16784805 UVP N16782567 NOR3
R_R20         GND VREF  1E8  
E_ABM84         BIASP 0 VALUE { if ( V(SSEND) <0.5, 3,  
+ V(N22027234) )    }
X_U142         ONSET OVPX N16783555 N16783791 TBLNK OR4_PS PARAMS: VHI=1 VLO=0
+  VTHRESH=500E-3 TPLH=1E-9 TPHL=1E-9 TR=1E-9 TF=1E-9
X_U255         N19318699 LUPB LOOPRES AND
R_R48         GND N21972830  1e8  
E_ABM20         OVPX 0 VALUE { if( V(CSN)  
+ >V(N16785608) ,1,0)   }
X_S6    RESS6_FINAL GND ZCCOUNT GND TPS51313_S6 
X_U286         N16782567 PREBIAS LOWDRIVE AND
X_U205         N21365219 N21745590 BUFFER_PS PARAMS: VHI=1 VLO=0 VTHRESH=500E-3
+  TPLH={1m*(1- FASTSS*0.9)} TPHL=.1u TR=1E-9 TF=1E-9
R_R23         VSREF VSREF_TEMP  6.2M  
E_ABM8         LOW_C 0 VALUE { if(V(VFB) > V(VSREF) * 0.84, 1,0)    }
E_ABM57         N20357943 0 VALUE { if( V(V5INOK)>0.5  
+ & V(EN)>0.5,1,0)   }
X_U257         N16783583 N16785973 N16785973 N16783555 NAND3_PS PARAMS: VHI=1
+  VLO=0 VTHRESH=500E-3 TPLH=1E-9 TPHL=1E-9 TR=1E-9 TF=1E-9
X_U241         BLNKM LUP N16785973 OR
X_S23    DRVL GND SW GND TPS51313_S23 
X_U306         N21972785 NCLEVE N21972767 AND
X_U303         RESS5 ZCNOT INV_PS PARAMS: VHI=1 VLO=0 VTHRESH=500E-3 TPLH=1u
+  TPHL=1u TR=1E-9 TF=1E-9
R_R5         GND COMP  10Meg  
E_ABM14         N21365219 0 VALUE { if( V(HIGH_C)>0.5  
+ & V(LOW_C)>0.5  
+ & V(SSEND)>0.5, 1, 0 )  }
E_ABM5         UV 0 VALUE { if(V(VFB) < V(N16831638) * 0.5, 1,0)    }
X_U269         N16783764 N16783585 N16786137 N16783615 NAND3_PS PARAMS: VHI=1
+  VLO=0 VTHRESH=500E-3 TPLH=1E-9 TPHL=1E-9 TR=1E-9 TF=1E-9
C_C5         GND VSREF  1n IC=0 
R_R7         GND N21926384  100k  
X_U194         N21002511 NCL BUFFER_PS PARAMS: VHI=1 VLO=0 VTHRESH=500E-3
+  TPLH=50n TPHL=50n TR=1E-9 TF=1E-9
X_U48         UVS ENHIRECAL UVLATCH N16831419 srnandlatchshp_basic PARAMS:
E_ABM64         RESFCCM 0 VALUE { if(V(COUNT)>7.5,1,0)    }
R_R34         GND ENCIR  1e8  
X_U250         DRVHPREBIAS N17640744 INVERTER
X_U263         N16784805 ENCIRD ENCIRD N16787246 NAND3_PS PARAMS: VHI=1 VLO=0
+  VTHRESH=500E-3 TPLH=1E-9 TPHL=1E-9 TR=1E-9 TF=1E-9
C_C16         SW VIN  10p IC=0 TC=0,0 
E_ABM6         1P125VREF 0 VALUE { V(N16831638) * 1.2    }
X_S3    N22210787 GND N22210730 ZCCOUNT TPS51313_S3 
E_ABM58         FASTCURRENT 0 VALUE { if(V(SSEND)<0.5, {FASTSS* V(OCLthr)},0)  
+   }
X_U210         N20357811 ENHI_RECAL BUFFER_PS PARAMS: VHI=1 VLO=0
+  VTHRESH=500E-3 TPLH=20u TPHL=2n TR=1E-9 TF=1E-9
E_ABM80         N17964862 0 VALUE { V(VSREF)   
+ + V(COMP) *0.87   }
V_V90         OCLTHR GND -0.175
C_C29         GND SW  10p IC=0 TC=0,0 
X_U50         OVS ENHIRECAL OVLATCH N16831479 srnandlatchshp_basic PARAMS:
X_U282         ZCNOT CCM N21015683 OR
X_U274         ENCIR DRVOFF INVERTER
X_U258         N16783555 N16783583 TBLNKB ENCIRD NAND3_PS PARAMS: VHI=1 VLO=0
+  VTHRESH=500E-3 TPLH=1E-9 TPHL=1E-9 TR=1E-9 TF=1E-9
X_U247         N16783764 N167834301 INVERTER
E_E13         N18716288 GND BIASM GND 1
V_V89         N21981797 GND 1.8
X_S5    RESS5_FINAL GND COUNT GND TPS51313_S5 
X_S24    DRVH SW VIN SW TPS51313_S24 
E_E8         CSP GND IINFO GND 1
X_U579         FCCM N19507159 N19574016 MONOPOS_PS PARAMS: PW=40n
R_R40         GND N22210730  1e8 TC=0,0 
X_U279         HIDRIVE N21735245 INVERTER
X_U249         ON N16786137 INVERTER
E_E10         SWINT GND SW GND 1
X_U26         UV UVD delay PARAMS: T=1000000
X_U259         N16783831 OCLDIS OCLDIS N16783791 NAND3_PS PARAMS: VHI=1 VLO=0
+  VTHRESH=500E-3 TPLH=1E-9 TPHL=1E-9 TR=1E-9 TF=1E-9
C_C23         GND N201814081  10p  
X_U261         N16787311 N16787293 N16787293 ZCOFF NAND3_PS PARAMS: VHI=1 VLO=0
+  VTHRESH=500E-3 TPLH=1E-9 TPHL=1E-9 TR=1E-9 TF=1E-9
X_U245         N16785290 N16786967 INVERTER
V_V15         N218988391 GND -250m
E_ABM66         N16785833 0 VALUE { if(V(VSEL) > 0.2, V(VSEL), 0.2)    }
E_GAIN2         GND 0 VALUE {1 * V(GND_0)}
X_U248         N16784151 N167834541 INVERTER
X_U280         LOWDRIVE XLOWDRIVE INVERTER
G_ABMII2         N21981797 N21981829 VALUE { {if(V(ENCIRD) >0.5, (3u +
+  3u*FASTSS),0)}    }
X_U222         NCLEVENT NCLEVENTB INVERTER
E_ABM74         N22210787 0 VALUE { if(V(NCLBCOUNT)>0.5  
+ & V(ZCCOUNT) <2.5, 1,0)   }
X_U298         RESS6 NCLEVE RESS6_FINAL OR
E_ABM7         HIGH_C 0 VALUE { if(V(VFB) < V(VSREF) * 1.12, 1,0)    }
X_U216         N16786285 ENCIRD N16786915 AND
X_U219         ENCIRD N219818361 INVERTER
E_ABM82         BIASM 0 VALUE { (V(CSN) - 500m)    }
X_S1    N21972967 GND N21972901 COUNT TPS51313_S1 
E_ABM16         NCLEVE 0 VALUE { if( V(LLO)  
+ > V(GND) +2m ,1,0)   }
X_U23          VFB 1P125VREF HYSTVAL OV COMP_HYS
X_U217         DQOS N16786915 N19538360 OR
E_ABM4         VSREF_TEMP 0 VALUE { if(V(N21981829)>0.6, 0.6,V(N21981829))    }
X_U246         N16783564 TBLNKB INVERTER
G_ABMII6         N22210785 N22210730 VALUE { if(V(NCLBCOUNT)>0.5, .01,0)    }
R_R11         GND N16831419  1e11  
X_U260         N16783791 N16783831 TBLNKB ENCIRD NAND3_PS PARAMS: VHI=1 VLO=0
+  VTHRESH=500E-3 TPLH=1E-9 TPHL=1E-9 TR=1E-9 TF=1E-9
.ENDS
.PARAM  fastss=1

.subckt TPS51313_S8 1 2 3 4  
S_S8         3 4 1 2 _S8
RS_S8         1 2 1G
.MODEL         _S8 VSWITCH Roff=1e11 Ron=20 Voff=0.75 Von=.25
.ends TPS51313_S8

.subckt TPS51313_S11 1 2 3 4  
S_S11         3 4 1 2 _S11
RS_S11         1 2 1G
.MODEL         _S11 VSWITCH Roff=1e11 Ron=1m Voff=.25 Von=.75
.ends TPS51313_S11

.subckt MODESEL_U1_S7 1 2 3 4  
S_U1_S7         3 4 1 2 _U1_S7
RS_U1_S7         1 2 1G
.MODEL         _U1_S7 VSWITCH Roff=1e9 Ron=1.0 Voff=.25 Von=.75
.ends MODESEL_U1_S7

.subckt TPS51313_S15 1 2 3 4  
S_S15         3 4 1 2 _S15
RS_S15         1 2 1G
.MODEL         _S15 VSWITCH Roff=1e11 Ron=0.5 Voff=.25 Von=.75
.ends TPS51313_S15

.subckt TPS51313_S13 1 2 3 4  
S_S13         3 4 1 2 _S13
RS_S13         1 2 1G
.MODEL         _S13 VSWITCH Roff=1e11 Ron=1.6 Voff=.25 Von=.75
.ends TPS51313_S13

.subckt TPS51313_S14 1 2 3 4  
S_S14         3 4 1 2 _S14
RS_S14         1 2 1G
.MODEL         _S14 VSWITCH Roff=1e11 Ron=0.6 Voff=.25 Von=.75
.ends TPS51313_S14

.subckt TPS51313_S16 1 2 3 4  
S_S16         3 4 1 2 _S16
RS_S16         1 2 1G
.MODEL         _S16 VSWITCH Roff=1e11 Ron=.9 Voff=.25 Von=.75
.ends TPS51313_S16

.subckt TPS51313_S2 1 2 3 4  
S_S2         3 4 1 2 _S2
RS_S2         1 2 1G
.MODEL         _S2 VSWITCH Roff=1e8 Ron=42 Voff=0.0V Von=1.0V
.ends TPS51313_S2

.subckt TPS51313_F1 1 2 3 4  
F_F1         3 4 VF_F1 1
VF_F1         1 2 0V
.ends TPS51313_F1

.subckt TPS51313_S10 1 2 3 4  
S_S10         3 4 1 2 _S10
RS_S10         1 2 1G
.MODEL         _S10 VSWITCH Roff=1e8 Ron=1.0 Voff=0.25 Von=0.75
.ends TPS51313_S10

.subckt TPS51313_S6 1 2 3 4  
S_S6         3 4 1 2 _S6
RS_S6         1 2 1G
.MODEL         _S6 VSWITCH Roff=1e11 Ron=1.0m Voff=.25 Von=.75
.ends TPS51313_S6

.subckt TPS51313_S23 1 2 3 4  
S_S23         3 4 1 2 _S23
RS_S23         1 2 1G
.MODEL         _S23 VSWITCH Roff=1e6 Ron=35m Voff=1 Von=2.7
.ends TPS51313_S23

.subckt TPS51313_S3 1 2 3 4  
S_S3         3 4 1 2 _S3
RS_S3         1 2 1G
.MODEL         _S3 VSWITCH Roff=1e11 Ron=10m Voff=0.0V Von=1.0V
.ends TPS51313_S3

.subckt TPS51313_S5 1 2 3 4  
S_S5         3 4 1 2 _S5
RS_S5         1 2 1G
.MODEL         _S5 VSWITCH Roff=1e11 Ron=1.0m Voff=.25 Von=.75
.ends TPS51313_S5

.subckt TPS51313_S24 1 2 3 4  
S_S24         3 4 1 2 _S24
RS_S24         1 2 1G
.MODEL         _S24 VSWITCH Roff=1e6 Ron=80m Voff=1 Von=2.7
.ends TPS51313_S24

.subckt TPS51313_S1 1 2 3 4  
S_S1         3 4 1 2 _S1
RS_S1         1 2 1G
.MODEL         _S1 VSWITCH Roff=1e11 Ron=10m Voff=0.0V Von=1.0V
.ends TPS51313_S1


** Wrapper definitions for AA legacy support **

** Wrapper definitions for AA legacy support **
.subckt delay in out
+ params:  t=100
s_s1         meas 0 reset2 0 s1
e_abm1         ch 0 value { if( v(in)>0.5,1,0)    }
e_abm3         out 0 value { if( v(meas)>0.5 & v(ch)>0.5,1,0)    }
r_r1         meas ch  {t} 
c_c1         0 meas  1.4427n  
e_abm2         reset 0 value { if(v(ch)<0.5,1,0)    }
r_r2         reset2 reset  0.1  
c_c2         0 reset2  1.4427n  
.model s1 vswitch roff=1e+009 ron=1 voff=0.25 von=0.75
.ends delay
*$

.subckt d_d1 1 2

d1 1 2 dd1

.model dd1 d
+ is=1e-015
+ tt=1e-011
+ rs=0.01
+ n=0.01

.ends d_d1
*$

.subckt d_d2 1 2

d1 1 2 dd2

.model dd2 d
+ is=1e-015
+ tt=1e-011
+ rs=0.01
+ n=0.01

.ends d_d2
*$
.subckt srlatchrhp_basic_gen s r q qb params: vdd=1 vss=0 vthresh=0.5 
rs s 0 1e11
rr r 0 1e11
gq 0 qint value = {if(v(r) > {vthresh},-5,if(v(s)>{vthresh},5, 0))}
cqint qint 0 1n
rqint qint 0 1000meg
d_d10 qint my5 d_d1
v1 my5 0 {vdd}
d_d11 myvss qint d_d1
v2 myvss 0 {vss} 
eq qqq 0 qint 0 1
x3 qqq qqqd1 buffer_ps
rqq qqqd1 q 1
eqb qbr 0 value = {if( v(q) > {vthresh}, {vss},{vdd})}
rqb qbr qb 1 
cdummy1 q 0 10p ic={0}
cdummy2 qb 0 10p ic={0}
.ic v(qint) {vss}













.model d_d1 d
+ is=1e-015
+ tt=1e-011

+ rs=0.05	
+ n=0.1
.ends srlatchrhp_basic_gen
*$



.subckt srnandlatchshp_basic s r q qb

r1 r 0 1e11
r2 s 0 1e11
gq 0 qint value = {if(v(s) > .5,1,if(v(r)>.5,-1, 0))}
cqint qint 0 1n
rqint qint 0 1000meg
d_d10 qint my5 d_d1
v1 my5 0 5
d_d11 0 qint d_d1
eq qqq 0 qint 0 1
x3 qqq qqqd1 buffer_ps
rqq qqqd1 q 1
eqb qbr 0 value = {if( v(q) > .5, 0,1)}
rqb qbr qb 1 
cdummy1 q 0 10p ic={1}
cdummy2 qb 0 10p ic={0}

.model d_d1 d
+ is=1e-015
+ tt=1e-011
+ rs=0.05
+ n=0.1

.ends srnandlatchshp_basic
*$
.SUBCKT SRLATCHSHP_BASIC_GEN S R Q QB PARAMS: VDD=1 VSS=0 VTHRESH=0.5 
rs s 0 1e11
rr r 0 1e11
GQ 0 Qint VALUE = {IF(V(S) > {VTHRESH},5,IF(V(R)>{VTHRESH},-5, 0))}
CQint Qint 0 1n
RQint Qint 0 1000MEG
D_D10 Qint MY5 D_D1
V1 MY5 0 {VDD}
D_D11 MYVSS Qint D_D1
V2 MYVSS 0 {VSS} 
EQ Qqq 0 Qint 0 1
X3 Qqq Qqqd1 buffer_ps
RQq Qqqd1 Q 1
EQb Qbr 0 VALUE = {IF( V(Q) > {VTHRESH}, {VSS},{VDD})}
RQb Qbr QB 1 
Cdummy1 Q 0 10p 
Cdummy2 QB 0 10p
.IC V(Qint) {VSS}
.model d_d1 d
+ is=1e-015
+ tt=1e-011
+ rs=0.05
+ n=0.1
.ENDS SRLATCHSHP_BASIC_GEN
*$
.SUBCKT NMOSIDEAL_PS  D G S PARAMS: k=1 vth=0.5
RDDUM D 0 1e11
RSDUM S 0 1e11
RGDUM G 0 1e11
CG G D 0.01pF
CD D S 0.01pF
EON Yp 0 VALUE={IF(V(G,S) > {vth}, 1, 0)}
GOUT D S VALUE={IF(V(D,S) > (V(G,S)-{vth}), V(Yp)*({k}/2)*
+(V(G,S)-{vth})**2,
+ V(Yp)*({k})*(V(G,S)-{vth}-(V(D,S)/2))*V(D,S))}
.ENDS
*$
.SUBCKT PMOSIDEAL_PS D G S PARAMS: k=1 vth=0 
RDDUM D 0 1e11
RSDUM S 0 1e11
RGDUM G 0 1e11
CG G D 0.01pF
CD D S 0.01pF
EON Yp 0 VALUE={IF(V(S,G) > {vth}, -1, 0)}
GOUT D S VALUE={IF(V(S,D) > (V(S,G)-{vth}), V(Yp)*({k}/2)*
+(V(S,G)-{vth})**2,
+ V(Yp)*({k})*(V(S,G)-{vth}-(V(S,D)/2))*V(S,D))}
.ENDS PMOSIDEAL_PS
*$
.subckt DC_1mV_1A_1V_1nA A C
G1 A C TABLE { V(A, C) } ( (-1,-1n)(0,0)(1m,1) (2m,10) (3m,1000) )
.ends DC_1mV_1A_1V_1nA 
*$
.SUBCKT ANALOG_BUFFER IN OUT  
+ PARAMs:  GAIN=1
EOUT OUT 0 VALUE { GAIN * V(IN)}
.ends ANALOG_BUFFER
*$
.SUBCKT AND A B OUT  
EOUT OUT1 0 VALUE { IF( V(A)>0.5 & V(B)>0.5,1,0) }
R1 OUT1 OUT 1
C1 OUT 0 10p
.ends AND
*$
.SUBCKT OR A B OUT  
EOUT OUT1 0 VALUE { IF( V(A)>0.5 | V(B)>0.5,1,0) }
R1 OUT1 OUT 1
C1 OUT 0 10p
.ends OR
*$
.SUBCKT NOR2 A B OUT  
EOUT OUT1 0 VALUE { IF( V(A)>0.5 | V(B)>0.5,0,1) }
R1 OUT1 OUT 1
C1 OUT 0 10p
.ends NOR2
*$
.SUBCKT NOR3 A B C OUT  
EOUT OUT1 0 VALUE { IF( V(A)>0.5 | V(B)>0.5 | V(C)>0.5,0,1) }
R1 OUT1 OUT 1
C1 OUT 0 10p
.ends NOR3
*$
.SUBCKT NOR4 A B C D OUT  
EOUT OUT1 0 VALUE { IF( V(A)>0.5 | V(B)>0.5 | V(C)>0.5 | V(D)>0.5,0,1) }
R1 OUT1 OUT 1
C1 OUT 0 10p
.ends NOR4
*$
.SUBCKT NAND3 A B C OUT  
EOUT OUT1 0 VALUE { IF( V(A)<0.5 & V(B)<0.5 & V(C)<0.5,1,0) }
R1 OUT1 OUT 1
C1 OUT 0 10p
.ends NAND3
*$
.SUBCKT NAND2 A B OUT  
EOUT OUT1 0 VALUE { IF( V(A)<0.5 & V(B)<0.5,1,0) }
R1 OUT1 OUT 1
C1 OUT 0 10p
.ends NAND2
*$
.SUBCKT AND3 A B C OUT  
EOUT OUT1 0 VALUE { IF( V(A)>0.5 & V(B)>0.5 & V(C)>0.5,1,0) }
R1 OUT1 OUT 1
C1 OUT 0 10p
.ends AND3
*$
.SUBCKT INVERTER IN OUT  
EOUT OUT1 0 VALUE { IF( V(IN)<0.5,1,0) }
R1 OUT1 OUT 1
C1 OUT 0 10p
.ends INVERTER
*$
.SUBCKT COMP_HYS INP INM HYS OUT 
EIN INP1 INM1 INP INM 1 
EHYS INP1 INP2 VALUE { IF( V(1)>0.5,-V(HYS)/2,V(HYS)/2) }
EOUT OUT 0 VALUE { IF( V(INP2)>V(INM1),1,0) }
R1 OUT 1 1
C1 1 0 1p
RINP1 INP1 0 100K
.ends COMP_HYS
*$
.SUBCKT COMP_HYS2 INP OUT 
+ PARAMs:  TH=.5 HYS=0.1
EIN INP1 0 INP 0 1 
EHYS INP1 INP2 VALUE { IF( V(1)>0.5,-(HYS)/2,HYS/2) }
EOUT OUT 0 VALUE { IF( V(INP2)>TH,1,0) }
R1 OUT 1 1
C1 1 0 1n
RINP1 INP1 0 10K
.ends COMP_HYS2
*$
.SUBCKT LAG_PS A Y PARAMS: gain=1 freq=10e6
RA A 0 1e11
EG FIRST 0 VALUE={gain*V(A)}
EPOLE Y 0 LAPLACE {V(FIRST)}={(1/(1+s/(2*3.1415*{freq})))}
RY Y 0 1e11
.ENDS LAG_PS
*$
.SUBCKT NAND3_PS Y A B C PARAMS: vhi=1 vlo=0 vthresh=500e-3
+ tplh=1e-9 tphl=1e-9 tr=1e-9 tf=1e-9
RA A 0 1e11
CA A 0 0.01pF
RB B 0 1e11
CB B 0 0.01pF
RC C 0 1e11
CC C 0 0.01pF
VS VSUP 0 DC 1
***** boolean ************
ENAND3 Ypp 0 VALUE={IF(V(A) > {vthresh} & V(B) > {vthresh} & V(C) >
+ {vthresh}, 0, 1)}
ROUTpp Ypp 0 1e11
***** add delay lines ****
XNSW1 OUTp Ypp 0 NSW_PS PARAMS: RONval={(tplh+1e-15)/(1e-12*0.693)}
+ VTHval=0.5
XPSW1 OUTp Ypp VSUP PSW_PS PARAMS: RONval={(tphl+1e-15)/(1e-12*0.693)}
+ VTHval=0.5
CDEL1 OUTp 0 1pF
ETHRESH Yp 0 VALUE={IF(V(OUTp) > 0.5, 1, 0)}
ROUTp Yp 0 1e11
** add rise and fall *****
XNSW2 OUTr Yp 0 NSW_PS PARAMS: RONval={(tf+1e-15)/(1e-12*2.3)} VTHval=0.5
XPSW2 OUTr Yp VSUP PSW_PS PARAMS: RONval={(tr+1e-15)/(1e-12*2.3)} VTHval=0.5
CDEL2 OUTr 0 1pF
**************************
EOUT OUTf 0 VALUE={V(OUTr)*({vhi} - {vlo})+{vlo}}
RDR OUTf Y  1000
RO Y 0 1e11
.ENDS NAND3_PS
*$
.SUBCKT DIDEAL_PS A C PARAMS: ron=1e-3 roff=1e9 
RA A 0 1e11
RC C 0 1e11
RAC A C 1e11
CAC A C 0.01pF ic=0
GD A B VALUE={LIMIT((0.01/{roff})*EXP((V(A,B)- 0.01)*{5}/0.026),40,-10u)}
RB B 0 1e9
RD B C {ron}
CC C 0 0.1pF 
.ENDS DIDEAL_PS
*$
.SUBCKT BUFFER_PS A Y PARAMS: vhi=1 vlo=0 vthresh=500e-3
+ tplh=1e-9 tphl=1e-9 tr=1e-9 tf=1e-9
RA A 0 1e11
CA A 0 0.01pF
VS VSUP 0 DC 1
***** boolean ************
EBUF1 Ypp 0 VALUE={IF(V(A) > ({vthresh}), 1, 0)}
ROUTpp Ypp 0 1e11
***** add delay lines ****
XNSW1 OUTp Ypp 0 NSW_PS PARAMS: RONval={(tplh+1e-15)/(1e-12*0.693)}
+ VTHval=0.5
XPSW1 OUTp Ypp VSUP PSW_PS PARAMS: RONval={(tphl+1e-15)/(1e-12*0.693)}
+ VTHval=0.5
CDEL1 OUTp 0 1pF
ETHRESH Yp 0 VALUE={IF(V(OUTp) > 0.5, 1, 0)}
ROUTp Yp 0 1e11
** add rise and fall *****
XNSW2 OUTr Yp 0 NSW_PS PARAMS: RONval={(tf+1e-15)/(1e-12*2.3)} VTHval=0.5
XPSW2 OUTr Yp VSUP PSW_PS PARAMS: RONval={(tr+1e-15)/(1e-12*2.3)} VTHval=0.5
CDEL2 OUTr 0 1pF
**************************
EOUT OUTf 0 VALUE={V(OUTr)*({vhi} - {vlo})+{vlo}}
RDR OUTf Y  1000
RO Y 0 1e11
.ENDS BUFFER_PS
*$
.SUBCKT INV_PS Y A PARAMS: vhi=1 vlo=0 vthresh=500e-3
+ tplh=1e-9 tphl=1e-9 tr=1e-9 tf=1e-9
RA A 0 1e11
CA A 0 0.01pF
VS VSUP 0 DC 1
***** boolean ************
EINV1 Ypp 0 VALUE={IF(V(A) > ({vthresh}), 0, 1)}
ROUTpp Ypp 0 1e11
***** add delay lines ****
XNSW1 OUTp Ypp 0 NSW_PS PARAMS: RONval={(tplh+1e-15)/(1e-12*0.693)}
+ VTHval=0.5
XPSW1 OUTp Ypp VSUP PSW_PS PARAMS: RONval={(tphl+1e-15)/(1e-12*0.693)}
+ VTHval=0.5
CDEL1 OUTp 0 1pF
ETHRESH Yp 0 VALUE={IF(V(OUTp) > 0.5, 1, 0)}
ROUTp Yp 0 1e11
** add rise and fall *****
XNSW2 OUTr Yp 0 NSW_PS PARAMS: RONval={(tf+1e-15)/(1e-12*2.3)} VTHval=0.5
XPSW2 OUTr Yp VSUP PSW_PS PARAMS: RONval={(tr+1e-15)/(1e-12*2.3)} VTHval=0.5
CDEL2 OUTr 0 1pF
**************************
EOUT OUTf 0 VALUE={V(OUTr)*({vhi} - {vlo})+{vlo}}
RDR OUTf Y  100
RO Y 0 1e11
.ENDS INV_PS
*$
.SUBCKT OR4_PS Y A B C D PARAMS: vhi=1 vlo=0 vthresh=500e-3
+ tplh=1e-9 tphl=1e-9 tr=1e-9 tf=1e-9
RA A 0 1e11
CA A 0 0.01pF
RB B 0 1e11
CB B 0 0.01pF
RC C 0 1e11
CC C 0 0.01pF
RD D 0 1e11
CD D 0 0.01pF
VS VSUP 0 DC 1
***** boolean ************
EOR4 Ypp 0 VALUE={IF(V(A) > {vthresh} | V(B) > {vthresh} 
+ | V(C) > {vthresh}  | V(D) > {vthresh}, 1, 0)}
ROUTpp Ypp 0 1e11
***** add delay lines ****
XNSW1 OUTp Ypp 0 NSW_PS PARAMS: RONval={(tplh+1e-15)/(1e-12*0.693)}
+ VTHval=0.5
XPSW1 OUTp Ypp VSUP PSW_PS PARAMS: RONval={(tphl+1e-15)/(1e-12*0.693)}
+ VTHval=0.5
CDEL1 OUTp 0 1pF
ETHRESH Yp 0 VALUE={IF(V(OUTp) > 0.5, 1, 0)}
ROUTp Yp 0 1e11
** add rise and fall *****
XNSW2 OUTr Yp 0 NSW_PS PARAMS: RONval={(tf+1e-15)/(1e-12*2.3)} VTHval=0.5
XPSW2 OUTr Yp VSUP PSW_PS PARAMS: RONval={(tr+1e-15)/(1e-12*2.3)} VTHval=0.5
CDEL2 OUTr 0 1pF
**************************
EOUT OUTf 0 VALUE={V(OUTr)*({vhi} - {vlo})+{vlo}}
RDR OUTf Y  1000
RO Y 0 1e11
.ENDS OR4_PS
*$
.SUBCKT COMPIDEAL_PS Y NEG POS PARAMS: td=1e-9 tt=1e-9
RP POS 0 1e11
CP POS 0 0.01pF
RN NEG 0 1e11
CN NEG 0 0.01pF
VS VSUP 0 DC 1
**** Comparator ****
ECOUT Ypp 0 VALUE={IF (V(POS) > V(NEG), 1, 0)}
RYPP Ypp 0 1e11
***** Add delay lines ****
XNSW1 OUTp Ypp 0 NSW_PS PARAMS: RONval={(td+1e-15)/(1e-12*0.693)} VTHval=0.5
XPSW1 OUTp Ypp VSUP PSW_PS PARAMS: RONval={(td+1e-15)/(1e-12*0.693)}
+ VTHval=0.5
CDEL1 OUTp 0 1pF
ETHRESH Yp 0 VALUE={IF(V(OUTp) > 0.5, 1, 0)} 
ROUTp Yp 0 1e11
** Add rise and fall *****
XNSW2 OUTr Yp 0 NSW_PS PARAMS: RONval={(tt+1e-15)/(1e-12*2.3)} VTHval=0.5
XPSW2 OUTr Yp VSUP PSW_PS PARAMS: RONval={(tt+1e-15)/(1e-12*2.3)} VTHval=0.5
CDEL2 OUTr 0 1pF
**************************
EOUT OUTf 0 VALUE={V(OUTr)}
RDR OUTf Y 1000
RO Y 0 1e11
.ENDS COMPIDEAL_PS
*$
.SUBCKT VCVSCLIP_PS YP YN POS NEG PARAMS: gain=1 vomax=1 vomin=-1
RP POS 0 1e11
CP POS 0 0.01pF
RN NEG 0 1e11
CN NEG 0 0.01pF
ROUTN YN 0 1e11
COUTN YN 0 0.01pF
***** boolean ************
EVCLP YP YN VALUE={LIMIT((V(POS)-V(NEG))*{gain},{vomax},{vomin})}
**************************
RO YP 0 1e11
.ENDS VCVSCLIP_PS
*$
.SUBCKT NAND2_PS Y A B PARAMS: vhi=1 vlo=0 vthresh=500e-3
+ tplh=1e-9 tphl=1e-9 tr=1e-9 tf=1e-9
RA A 0 1e11
CA A 0 0.01pF
RB B 0 1e11
CB B 0 0.01pF
VS VSUP 0 DC 1
***** boolean ************
ENAND2 Ypp 0 VALUE={IF(V(A) > {vthresh} & V(B) > {vthresh}, 0, 1)}
ROUTpp Ypp 0 1e11
***** add delay lines ****
XNSW1 OUTp Ypp 0 NSW_PS PARAMS: RONval={(tplh+1e-15)/(1e-12*0.693)}
+ VTHval=0.5
XPSW1 OUTp Ypp VSUP PSW_PS PARAMS: RONval={(tphl+1e-15)/(1e-12*0.693)}
+ VTHval=0.5
CDEL1 OUTp 0 1pF
ETHRESH Yp 0 VALUE={IF(V(OUTp) > 0.5, 1, 0)}
ROUTp Yp 0 1e11
** add rise and fall *****
XNSW2 OUTr Yp 0 NSW_PS PARAMS: RONval={(tf+1e-15)/(1e-12*2.3)} VTHval=0.5
XPSW2 OUTr Yp VSUP PSW_PS PARAMS: RONval={(tr+1e-15)/(1e-12*2.3)} VTHval=0.5
CDEL2 OUTr 0 1pF
**************************
EOUT OUTf 0 VALUE={V(OUTr)*({vhi} - {vlo})+{vlo}}
RDR OUTf Y  1000
RO Y 0 1e11
.ENDS NAND2_PS
*$
.SUBCKT NSW_PS D G S PARAMS: RONval=10k VTHval=0.7 VCHARval=0.01
+ CGval=0.01pF CDval=0.01pF 
RDDUM D 0 1e11
RSDUM S 0 1e11
RGDUM G 0 1e11
CG G D {CGval}
CD D S {CDval}
EEXP F1 0 VALUE={LIMIT(((V(G,S)-VTHval)/VCHARval),-80,80)} 
GOUT D S VALUE={V(D,S)/(RONval*(1+EXP(-LIMIT(((V(G,S)-VTHval)
+ /VCHARval),-80,80))))}
.ENDS NSW_PS
*$
.SUBCKT PSW_PS D G S PARAMS: RONval=10k VTHval=0.7 VCHARval=0.01
+ CGval=0.01pF CDval=0.01pF 
RDDUM D 0 1e11
RSDUM S 0 1e11
RGDUM G 0 1e11
CG G D {CGval}
CD D S {CDval}
EEXP F1 0 VALUE={LIMIT(((V(S,G)-VTHval)/VCHARval),-80,80)} 
GOUT S D VALUE={V(S,D)/(RONval*(1+EXP(-LIMIT(((V(S,G)-VTHval)
+ /VCHARval),-80,80))))}
.ENDS PSW_PS
*$
.SUBCKT GAIN_MUL IN OUT  
+ PARAMs:  GAIN=1
EOUT OUT 0 VALUE { GAIN * V(IN)}
.ends GAIN_MUL
*$
.SUBCKT MONOPOS_PS in Q Qn PARAMS: PW=250u 
VS VSUP 0 DC 1
RS VSUP 0 1e11
r1 IN 0 1e11
GIN VSUP YA VALUE={IF(V(IN)>0.5, V(VSUP)/1000K, 0)}
GDIS YA 0 VALUE={IF(V(IN)>0.5,0, V(YA)/1m)}
CIN YA 0 1n IC=0
RIN YA 0 1e11
EABM1 YTD 0 VALUE={IF(V(YA)> {PW*1000}, 1, 0)}
RYTD YTD 0 1e11
EXOR P 0 VALUE={IF(V(YTD) > 0.5 ^ V(IN) > .5, 1, 0)}