*$
* TPS51275B
*****************************************************************************
* (C) Copyright 2013 Texas Instruments Incorporated. All rights reserved.                                            
*****************************************************************************
** This model is designed as an aid for customers of Texas Instruments.
** TI and its licensors and suppliers make no warranties, either expressed
** or implied, with respect to this model, including the warranties of 
** merchantability or fitness for a particular purpose.  The model is
** provided solely on an "as is" basis.  The entire risk as to its quality
** and performance is with the customer
*****************************************************************************
*
* This model is subject to change without notice. Texas Instruments
* Incorporated is not responsible for updating this model.
*
*****************************************************************************
*
** Released by: WEBENCH Design Center, Texas Instruments Inc.
* Part: TPS51275B
* Date: 11MAR2013
* Model Type: TRANSIENT
* Simulator: PSPICE 
* Simulator Version: 16.2.0.p001
* EVM Order Number: 
* EVM Users Guide: 
* Datasheet: SLUSB45B
*
* Model Version: Final 1.00
*
*****************************************************************************
*
* Updates:
*
* Final 1.00
* Release to Web.
*
******************************************************************************
.SUBCKT TPS51275B_TRANS CS1 CS2 DRVH1 DRVH2 DRVL1 DRVL2 EN1 EN2 PowerPAD PGOOD SW1
+  SW2 VBST1 VBST2 VCLK VFB1 VFB2 VIN VO1 VREG3 VREG5 PARAMS: MODE=1
Rdummy PowerPAD GND 1m
X_U48         N15656866 N15656792 N15656952 N166550283 SRNANDLATCHSHP_BASIC
X_U255         ENCIRD1 ENCIRD2 N15656858 AND
C_C12         GND N15656866  1n  
X_U1_U306         U1_ON U1_N17126374 INVERTER
R_U1_R4         GND U1_OOAPULSE  1Meg TC=0,0 
X_U1_U219         U1_N17578525 U1_DQOS_IN U1_DQOS OR
V_U1_V87         U1_N8028602 U1_MODECHECK -5m
X_U1_S7    U1_DRL2 GND DRVL1 GND DCAP_ch1_U1_S7 
X_U1_U305         U1_N17544855 U1_ON1 U1_ON1_BAR_DELAY U1_N17352871 NAND3_PS
+  PARAMS: VHI=1 VLO=0 VTHRESH=500E-3 TPLH=1E-9 TPHL=1E-9 TR=1E-9 TF=1E-9
R_U1_R16         GND U1_N17959306  1Meg  
E_U1_ABM3         U1_DRVH_EVENT 0 VALUE { if(V(DRVH1)>5,1,0)    }
X_U1_U287         U1_DRH2 U1_N8030314 INVERTER
X_U1_U275         U1_DRVOFF U1_DRVOFF U1_HIREADY U1_UVP U1_HIDRIVE_NON_DELAYED
+  NOR4
X_U1_U254         ENCIRD1 U1_N15484042 U1_N15484100 AND
X_U1_S13    U1_OOACHECK GND U1_OOATIME GND DCAP_ch1_U1_S13 
X_U1_U267         U1_N8028310 U1_N8031166 U1_SHOT_OUT U1_SHOT_OUT NAND3_PS
+  PARAMS: VHI=1 VLO=0 VTHRESH=500E-3 TPLH=1E-9 TPHL=1E-9 TR=1E-9 TF=1E-9
X_U1_U260         U1_OCL U1_N8028968 U1_TBLNKB ENCIRD1 NAND3_PS PARAMS: VHI=1
+  VLO=0 VTHRESH=500E-3 TPLH=1E-9 TPHL=1E-9 TR=1E-9 TF=1E-9
E_U1_ABM33         U1_OVS 0 VALUE { if( V(ENCIRD1)> 0.5 &  
+ V(U1_OVD)>0.5,1,0)   }
C_U1_C176         0 U1_INDELAYED2  1n  
E_U1_ABM6         U1_1P125VREF 0 VALUE { V(U1_V2P0) * 1.15    }
X_U1_U274         ENCIRD1 U1_DRVOFF INVERTER
X_U1_U213         U1_N8031562 U1_DRH1 BUFFER_PS PARAMS: VHI=1 VLO=0
+  VTHRESH=500E-3 TPLH=10E-9 TPHL=2E-9 TR=1E-9 TF=1E-9
X_U1_U291         U1_BLNKM U1_LOOP_RAW U1_N17316655 OR
R_U1_R12         GND U1_N8029192  1Meg  
E_U1_E1         GND U1_OCLTHR GND CS1 -.125
R_U1_R9         U1_LLO U1_N15131182  100  
X_U1_U281         U1_DRVH_EVENT U1_N8031306 U1_DRVHPREBIAS AND
X_U1_U311         U1_DRH1 U1_N17352871 INVERTER
R_U1_R33         U1_VOS U1_N16212974  600k TC=0,0 
R_U1_R17         GND U1_N167898603  1Meg  
R_U1_R23         GND PGOOD1  1e6  
X_U1_S5    U1_DRH1 GND VBST1 DRVH1 DCAP_ch1_U1_S5 
X_U1_U240         U1_NCL U1_N8028596 INVERTER
X_U1_U218         U1_N17544855 U1_DRVOFF U1_N17126376 OR
X_U1_U217         U1_DQOS U1_N8031828 U1_TOS OR
X_U1_U13          U1_P675VREF VFB1 U1_HYSTVAL U1_UV COMP_HYS
X_U1_U289         U1_DRL2 U1_N8028504 INVERTER
X_U1_U192         DRVL1 U1_N8029732 BUFFER_PS PARAMS: VHI=1 VLO=0
+  VTHRESH=500E-3 TPLH=8n TPHL=2E-9 TR=1E-9 TF=1E-9
X_U1_U48         U1_UVS U1_N15397273 U1_UVLATCH U1_N167897330
+  SRNANDLATCHSHP_BASIC
X_U1_S14    U1_DQOS GND U1_N15795052 GND DCAP_ch1_U1_S14 
X_U1_U314         U1_HIDRIVE_NON_DELAYED U1_N17629738 U1_N17629694 AND
E_U1_ABM15         U1_REFEFF 0 VALUE { ( V(U1_RAMP)  
+ + V(SS1) )   }
X_U1_U251         U1_LUPB U1_LUPB U1_N167895531 OR
C_U1_C13         GND U1_OOATIME  3.7p IC=0 TC=0,0 
R_U1_R13         GND U1_N15397273  1Meg  
X_U1_U284         U1_LOWDRIVE_MUX U1_N8028504 U1_N8031494 AND
X_U1_U303         U1_N17046775 U1_N17046775 U1_N17047488 AND
R_U1_R6         GND U1_PWMMODE  1Meg TC=0,0 
X_U1_U277         U1_ENLOW2 U1_N8032134 U1_N8031784 OR
X_U1_U18         U1_N17629694 U1_INDELAYED2 d_d2
X_U1_U256         U1_EN_VIN_TONEXT VLOWVIN U1_N17071846 AND
X_U1_U297         U1_SHOTIN U1_N17578525 INVERTER
X_U1_U194         U1_N15200812 U1_TRES BUFFER_PS PARAMS: VHI=1 VLO=0
+  VTHRESH=500E-3 TPLH=70n TPHL=70n TR=1E-9 TF=1E-9
X_U1_U286         U1_DRH1 U1_N8029314 INVERTER
X_U1_U279         U1_HIDRIVE U1_N167890922 INVERTER
E_U1_ABM35         U1_OVP 0 VALUE { if( V(U1_OVLATCH)> 0.5 &  
+ V(ENCIRD1)>0.5,1,0)   }
X_U1_U280         U1_LOWDRIVE U1_N167883611 INVERTER
X_U1_U241         U1_OVP U1_N17046775 INVERTER
X_U1_U327         U1_N16616655 U1_ON1 U1_N16949652 N16954188
+  SRLATCHRHP_BASIC_GEN PARAMS: VDD=1 VSS=0 VTHRESH=0.5
X_U1_U248         U1_HIREADY U1_N167891962 INVERTER
X_U1_U285         U1_N8029506 U1_N167883611 U1_N15641500 AND
R_U1_R34         GND U1_VOS  400k TC=0,0 
X_U1_U321         U1_NOCL_CHECK U1_N17898101 INVERTER
X_U1_U283         U1_N8029314 U1_N167890922 U1_N167890921 AND
X_U1_U288         U1_DRL1 U1_N8029506 INVERTER
R_U1_R35         U1_N15180712 U1_N15805176  240k TC=0,0 
X_U1_U315         U1_HIDRIVE_NON_DELAYED U1_INDELAYED2 U1_HIDRIVE OR
E_U1_ABM19         U1_LOWDRIVE_MUX 0 VALUE { if( V(U1_OVP)>0.5,  
+ V(U1_LOWRIVE_LATCH),  
+ V(U1_LOWDRIVE) )  }
C_U1_C6         U1_TON U1_N15795052  6p IC=0 TC=0,0 
X_U1_U191         U1_N8032008 U1_N8031306 BUFFER_PS PARAMS: VHI=1 VLO=0
+  VTHRESH=500E-3 TPLH=2E-9 TPHL=20n TR=1E-9 TF=1E-9
X_U1_U142         U1_ONSET U1_OVPX U1_N8028342 U1_OCL U1_N8028310 OR4_PS
+  PARAMS: VHI=1 VLO=0 VTHRESH=500E-3 TPLH=1E-9 TPHL=1E-9 TR=1E-9 TF=1E-9
X_U1_U189         U1_N8030134 U1_LOWREADY INV_PS PARAMS: VHI=1 VLO=0
+  VTHRESH=500E-3 TPLH=270n TPHL=10n TR=1E-9 TF=1E-9
R_U1_R26         GND U1_N167886200  1e8 TC=0,0 
E_U1_ABM9         U1_OVP_LAT_TEST 0 VALUE { if( V(U1_NOCL_LATCH)>0.5,  
+ V(GND),  
+ V(U1_OVP) )  }
X_U1_U190         U1_SHOTIN U1_N16999020 INV_PS PARAMS: VHI=1 VLO=0
+  VTHRESH=500E-3 TPLH=20n TPHL=20n TR=1E-9 TF=1E-9
X_U1_U247         U1_LOWREADY U1_N167885172 INVERTER
X_U1_U301         ENCIRD1 U1_N17047488 U1_N17048203 AND
X_U1_U318         U1_N17872088 U1_NOCL_CHECK U1_N17875743 U1_N17875743 NAND3_PS
+  PARAMS: VHI=1 VLO=0 VTHRESH=500E-3 TPLH=1E-9 TPHL=1E-9 TR=1E-9 TF=1E-9
X_U1_U317         U1_N17677908 U1_ONB U1_TEST U1_OVP NAND3_PS PARAMS: VHI=1
+  VLO=0 VTHRESH=500E-3 TPLH=1E-9 TPHL=1E-9 TR=1E-9 TF=1E-9
E_U1_ABM32         U1_UVS 0 VALUE { if( V(ENUVPG1)> 0.5 &  
+ V(U1_UVD)>0.5,1,0)   }
X_U1_U26         U1_UV U1_UVD DELAY PARAMS: T=250000
C_U1_C11         GND U1_ON1_BAR_DELAY  0.7p IC=0 TC=0,0 
X_U1_U328          VFB1 U1_HIGH_C COMP_HYS2 PARAMS:  TH=2.15 HYS=0.1   
X_U1_U319         U1_N17875743 U1_N17872088 ENCIRD1 U1_OVP NAND3_PS PARAMS:
+  VHI=1 VLO=0 VTHRESH=500E-3 TPLH=1E-9 TPHL=1E-9 TR=1E-9 TF=1E-9
X_U1_U50         U1_OVS U1_N8029198 U1_OVLATCH U1_N8029192 srnandlatchshp_basic
R_U1_R275         U1_N17629694 U1_INDELAYED2  40.40  
X_U1_U263         U1_SSENDSET ENCIRD1 ENCIRD1 U1_N8024778 NAND3_PS PARAMS:
+  VHI=1 VLO=0 VTHRESH=500E-3 TPLH=1E-9 TPHL=1E-9 TR=1E-9 TF=1E-9
R_U1_R14         GND U1_N8029198  1Meg  
X_U1_U243         U1_BLNKM U1_N8028596 U1_N8079185 OR
X_U1_U268         U1_N8031166 ENCIRD1 U1_N8031174 U1_N8028310 NAND3_PS PARAMS:
+  VHI=1 VLO=0 VTHRESH=500E-3 TPLH=1E-9 TPHL=1E-9 TR=1E-9 TF=1E-9
X_U1_U257         U1_N8028448 U1_LBB U1_LBB U1_N8028342 NAND3_PS PARAMS: VHI=1
+  VLO=0 VTHRESH=500E-3 TPLH=1E-9 TPHL=1E-9 TR=1E-9 TF=1E-9
E_U1_ABM45         U1_N16616655 0 VALUE { if(V(U1_HIDRIVE) < 0.5 &  
+ V(U1_LOWDRIVE) <0.5,1,0)   }
X_U1_U310         U1_BLNKM U1_N17498298 U1_OCLDIS OR
C_U1_C10         GND U1_RMP  4p IC=0 TC=0,0 
G_U1_ABMII2         V5FILT U1_OOATIME VALUE { if(V(U1_OOACHECK)>0.5, 0.1u,0)   
+  }
X_U1_U261         U1_ZC U1_N8079185 U1_N8079185 U1_N8024888 NAND3_PS PARAMS:
+  VHI=1 VLO=0 VTHRESH=500E-3 TPLH=1E-9 TPHL=1E-9 TR=1E-9 TF=1E-9
X_U1_U195         U1_N17629738 U1_HIDRIVE_NON_DELAYED INV_PS PARAMS: VHI=1
+  VLO=0 VTHRESH=500E-3 TPLH=1E-9 TPHL=2E-9 TR=1E-9 TF=1E-9
X_U1_U193         U1_HIREADY U1_DQOS_IN BUFFER_PS PARAMS: VHI=1 VLO=0
+  VTHRESH=500E-3 TPLH=2E-9 TPHL=2E-9 TR=1E-9 TF=1E-9
X_U1_U326         U1_N16616775 SSEND1 U1_N16616643 AND
E_U1_ABM47         U1_N16616775 0 VALUE { if(V(U1_ON1) < 0.5 &  
+ V(U1_OOA) >0.5,1,0)   }
X_U1_U51         U1_LOWDRIVE U1_N17898101 U1_LOWRIVE_LATCH U1_N167898603
+  SRNANDLATCHSHP_BASIC
E_U1_ABM20         U1_N15200812 0 VALUE { if( V(U1_TON)   
+ <V(U1_VOS),1,0)   }
X_U1_U300         U1_N16999013 U1_N16999020 U1_SHOTIN ENCIRD1 NAND3_PS PARAMS:
+  VHI=1 VLO=0 VTHRESH=500E-3 TPLH=1E-9 TPHL=1E-9 TR=1E-9 TF=1E-9
X_U1_U265         U1_ON U1_ONSET U1_ONSET U1_N8024982 NAND3_PS PARAMS: VHI=1
+  VLO=0 VTHRESH=500E-3 TPLH=1E-9 TPHL=1E-9 TR=1E-9 TF=1E-9
V_U1_V93         U1_N17051925 GND 1
X_U1_U273         U1_N15494388 U1_OCMDIS U1_OCMDIS U1_OCM NAND3_PS PARAMS:
+  VHI=1 VLO=0 VTHRESH=500E-3 TPLH=1E-9 TPHL=1E-9 TR=1E-9 TF=1E-9
X_U1_U23          VFB1 U1_1P125VREF U1_HYSTVAL U1_OV COMP_HYS
X_U1_U215         U1_N8031494 U1_DRL1 BUFFER_PS PARAMS: VHI=1 VLO=0
+  VTHRESH=500E-3 TPLH=10E-9 TPHL=2E-9 TR=1E-9 TF=1E-9
R_U1_R36         U1_N15180712 U1_TON  460k TC=0,0 
X_U1_U296         U1_BLNKM U1_TBLNKB U1_N8031784 NAND2_PS PARAMS: VHI=1 VLO=0
+  VTHRESH=500E-3 TPLH=1E-9 TPHL=1E-9 TR=1E-9 TF=1E-9
X_U1_S12    U1_QRMP GND U1_RMP GND DCAP_ch1_U1_S12 
E_U1_ABM18         U1_NOCL_CHECK 0 VALUE { if( V(U1_LLO)  
+ >V(U1_N17228765) ,0,1)   }
X_U1_U214         U1_N15641500 U1_DRL2 BUFFER_PS PARAMS: VHI=1 VLO=0
+  VTHRESH=500E-3 TPLH=10E-9 TPHL=2E-9 TR=1E-9 TF=1E-9
X_U1_U308         U1_OVP U1_LOOPB U1_LOOP_RAW OR
V_U1_V88         U1_N17684805 GND 1
E_U1_ABM11         U1_N8026108 0 VALUE { if( V(U1_N16992489)   
+ >V(U1_LLO) ,1,0)   }
X_U1_U316         GND GND U1_N17658529 OR
V_U1_V90         U1_EN_VIN_TONEXT GND 1
X_U1_U282         U1_HIDRIVE U1_N8030314 U1_N8031562 AND
X_U1_U302         U1_DRVH_EVENT U1_QRMP U1_N167886200 MONOPOS_PS PARAMS: PW=2n
X_U1_U292         U1_OCM U1_N15494388 U1_TBLNKB ENCIRD1 NAND3_PS PARAMS: VHI=1
+  VLO=0 VTHRESH=500E-3 TPLH=1E-9 TPHL=1E-9 TR=1E-9 TF=1E-9
R_U1_R27         GND U1_QRMP  1e8 TC=0,0 
X_U1_U244         U1_N8030134 U1_N8031174 INVERTER
E_U1_ABM5         U1_P675VREF 0 VALUE { V(U1_V2P0) * 0.6    }
X_U1_U293         U1_EN_VIN_TONEXT LOWVIN U1_B_IN AND
X_U1_U259         U1_N8028968 U1_OCLDIS U1_OCLDIS U1_OCL NAND3_PS PARAMS: VHI=1
+  VLO=0 VTHRESH=500E-3 TPLH=1E-9 TPHL=1E-9 TR=1E-9 TF=1E-9
X_U1_U35         U1_OV U1_OVD DELAY PARAMS: T=500
E_U1_E8         U1_N15805176 GND SW1 GND 1
X_U1_U307         U1_ON1 U1_ON1_BAR INVERTER
X_U1_U329          VFB1 U1_LOW_C COMP_HYS2 PARAMS:  TH=1.85 HYS=0.1   
X_U1_S8    U1_DRL1 GND VREG5 DRVL1 DCAP_ch1_U1_S8 
E_U1_E7         U1_RMPIN GND U1_RMP GND 1
X_U1_S15    U1_DQOS GND U1_TON U1_N15795052 DCAP_ch1_U1_S15 
X_U1_S2    U1_DISCH GND VO1 GND DCAP_ch1_U1_S2 
V_U1_V89         U1_V2P0 GND 2
X_U1_U304         U1_ON1 U1_N17126374 U1_N17126374 U1_N17126376 NAND3_PS
+  PARAMS: VHI=1 VLO=0 VTHRESH=500E-3 TPLH=1E-9 TPHL=1E-9 TR=1E-9 TF=1E-9
X_U1_U216         U1_TRES ENCIRD1 U1_N8031828 AND
X_U1_U231         U1_OCM_IN N17103716 U1_LOWREADY U1_OCM U1_ONE_VOLT
+  U1_ONE_VOLT DFF_BASIC
X_U1_U255         U1_ZC U1_N17071846 U1_N17079049 OR
R_U1_R15         GND U1_N167894250  1Meg  
X_U1_U313         U1_TEST U1_N17677908 U1_N17684805 NAND2_PS PARAMS: VHI=1
+  VLO=0 VTHRESH=500E-3 TPLH=1E-9 TPHL=1E-9 TR=1E-9 TF=1E-9
V_U1_V92         U1_ONE_VOLT GND 1
X_U1_U250         U1_ON1 U1_ONB INVERTER
R_U1_R3         GND U1_OOA  1Meg TC=0,0 
E_U1_ABM58         U1_OVPX 0 VALUE { if(V(VO1)>5.9,1,0)    }
X_U1_U266         U1_N8024982 U1_ON U1_SHOT_OUT ENCIRD1 NAND3_PS PARAMS: VHI=1
+  VLO=0 VTHRESH=500E-3 TPLH=1E-9 TPHL=1E-9 TR=1E-9 TF=1E-9
E_U1_ABM34         U1_UVP 0 VALUE { if( V(U1_UVLATCH)> 0.5 &  
+ V(ENUVPG1)>0.5,1,0)   }
X_U1_U294         U1_HIREADY U1_ON1 U1_N8025810 NAND2_PS PARAMS: VHI=1 VLO=0
+  VTHRESH=500E-3 TPLH=1E-9 TPHL=1E-9 TR=1E-9 TF=1E-9
X_U1_U271         U1_DRVHPREBIAS U1_N167891962 U1_ENLOW1 NOR2
X_U1_U262         U1_N8024888 U1_ZC U1_TBLNKB ENCIRD1 NAND3_PS PARAMS: VHI=1
+  VLO=0 VTHRESH=500E-3 TPLH=1E-9 TPHL=1E-9 TR=1E-9 TF=1E-9
E_U1_ABM14         U1_N15131182 0 VALUE { if( V(DRVL1)>2.5 & V(SW1) <0.5,  
+ V(SW1),  
+ V(GND) )  }
E_U1_ABM51         U1_DISCH 0 VALUE { if( V(U1_OVP)>0.5 |  
+ V(U1_UVP) >0.5 |  
+ V(ENCIRD1) <0.5,1,0)  }
E_U1_ABM46         U1_RAMP 0 VALUE { if(V(ENCIRD1)>0.5,  
+ LIMIT((V(U1_RMP)-0.01),-10m,10m),0)   }
E_U1_ABM10         U1_LUPB 0 VALUE { if( V(U1_REFEFF)  
+ >V(VFB1) ,1,0)   }
X_U1_U276         U1_OVP_LAT_TEST U1_N15240870 U1_LOWDRIVE OR
E_U1_ABM16         U1_N15484042 0 VALUE { if( V(U1_OCLTHR) * 0.5  
+ >V(U1_LLO) ,1,0)   }
C_U1_C14         U1_LLO GND  10p  TC=0,0 
R_U1_R29         GND U1_OOATIME  1e8 TC=0,0 
X_U1_U278         U1_HIREADY U1_N8032008 INVERTER
E_U1_ABM21         U1_HYSTVAL 0 VALUE { V(U1_V2P0) * 0    }
X_U1_U269         U1_LOWREADY U1_ENLOW1 U1_ONB U1_ENLOW2 NAND3_PS PARAMS: VHI=1
+  VLO=0 VTHRESH=500E-3 TPLH=1E-9 TPHL=1E-9 TR=1E-9 TF=1E-9
X_U1_U295         U1_N8024792 U1_DRVHPREBIAS U1_HIDRIVE NAND2_PS PARAMS: VHI=1
+  VLO=0 VTHRESH=500E-3 TPLH=1E-9 TPHL=1E-9 TR=1E-9 TF=1E-9
E_U1_ABM13         PGOOD1 0 VALUE { if( V(U1_HIGH_C)<0.5  
+ & V(U1_LOW_C)>0.5   
+ & V(U1_N17051925)>0.5, 1, 0 )  }
X_U1_U290         U1_N17693264 U1_N17693264 U1_N15240870 AND
R_U1_R37         GND U1_N15180712  240k TC=0,0 
X_U1_U312         U1_NOCL_CHECK U1_NOCL_CHECK U1_N17489905 OR
G_U1_ABMII1         V5FILT CS1 VALUE { if(V(ENCIRD1) >0.5,10u,0)    }
E_U1_ABM12         U1_NCL 0 VALUE { if( V(U1_LLO)  
+ >V(U1_N8028602) ,1,0)   }
R_U1_R25         GND U1_RMP  1e8 TC=0,0 
X_U1_U212         U1_N167890921 U1_DRH2 BUFFER_PS PARAMS: VHI=1 VLO=0
+  VTHRESH=500E-3 TPLH=10E-9 TPHL=2E-9 TR=1E-9 TF=1E-9
G_U1_ABMII4         V5FILT U1_RMP VALUE { if(V(ENCIRD1) > 0.5, 12n , 0)    }
X_U1_U298         U1_N17079049 SSEND1 U1_C_IN AND
X_U1_U309         U1_N17316655 U1_N17489905 U1_LBB AND
E_U1_ABM61         U1_N16212974 0 VALUE { if(V(VO1)>0.5,V(VO1),0.5)    }
R_U1_R28         U1_ON1_BAR_DELAY U1_ON1_BAR  284.477k TC=0,0 
X_U1_U258         U1_N8028342 U1_N8028448 U1_TBLNKB ENCIRD1 NAND3_PS PARAMS:
+  VHI=1 VLO=0 VTHRESH=500E-3 TPLH=1E-9 TPHL=1E-9 TR=1E-9 TF=1E-9
X_U1_U14         CS1 V5FILT d_d1
X_U1_U239         U1_N167895531 U1_LOOPB INVERTER
E_U1_ABM42         U1_OOA 0 VALUE { if(V(VINOK) >0.5 & V(VINOK) <5.5 &  
+ V(VINOK) >0.5,1,0)   }
X_U1_U323         U1_N8024888 U1_OOAPULSE U1_ENLOW2 OR
X_U1_U245         U1_N8029732 U1_N8032134 INVERTER
R_U1_R38         GND U1_N15795052  4k TC=0,0 
E_U1_ABM17         U1_N16992489 0 VALUE { if( V(SSEND1) >0.5, V(U1_OCLTHR)
+  ,(V(U1_OCLTHR) * {(1+ MODE) }))    }
X_U1_U270         U1_N8029732 U1_N167885172 U1_N8025810 NOR2
X_U1_U322         U1_OVP U1_ONB U1_OVP_AND_OVP AND
X_U1_U320         U1_NOCL_CHECK U1_N17959314 INVERTER
E_U1_ABM8         U1_MODECHECK 0 VALUE { if( V(U1_N17658529)>0.5,  
+ -V(U1_OCLTHR),  
+ V(GND) )  }
E_U1_E2         GND U1_N17228765 GND U1_OCLTHR -1
E_U1_ABM546         U1_OOAPULSE 0 VALUE { if(V(U1_OOATIME)>1,1,0)    }
X_U1_U246         U1_N8028358 U1_TBLNKB INVERTER
X_U1_U238         ENCIRD1 U1_N8026108 U1_N17498298 AND
E_U1_u20_u3_ABM1         U1_u20_u3_N8032072 0 VALUE { if ( V(U1_u20_N13640653)>
+  0.5,  
+ V(U1_u20_u3_N13650456),  
+ V(U1_u20_u3_N13650464) )   }
X_U1_u20_u3_U244         U1_u20_u3_N8033152 U1_u20_CLRZ U1_u20_u3_N8032860
+  NAND2_BASIC
X_U1_u20_u3_S10    U1_u20_N13636996 GND U1_u20_u3_N8032363 U1_u20_u3_N8032860
+  SDC_U1_u20_u3_S10 
X_U1_u20_u3_U245         U1_u20_u3_N8035344 U1_u20_Q1 INVERTER
X_U1_u20_u3_U247         U1_u20_u3_N8035851 U1_u20_N13641212 INVERTER
X_U1_u20_u3_U243         U1_u20_u3_N8032363 U1_u20_u3_N8033152 INVERTER
X_U1_u20_u3_S9    U1_u20_u3_CLKZ GND U1_u20_u3_N8032072 U1_u20_u3_N8032363
+  SDC_U1_u20_u3_S9 
R_U1_u20_u3_R31         GND U1_u20_u3_N8032072  1e11 TC=0,0 
X_U1_u20_u3_U242         U1_u20_N13636996 U1_u20_u3_CLKZ INVERTER
X_U1_u20_u3_U250         U1_u20_N13639471 U1_u20_u3_N13650464 INVERTER
X_U1_u20_u3_S11    U1_u20_N13636996 GND U1_u20_u3_N8032860 U1_u20_u3_N8035344
+  SDC_U1_u20_u3_S11 
X_U1_u20_u3_U248         U1_u20_u3_N8035851 U1_u20_CLRZ U1_u20_u3_N8037538
+  NAND2_BASIC
X_U1_u20_u3_U246         U1_u20_u3_N8035344 U1_u20_u3_N8035851 INVERTER
R_U1_u20_u3_R28         GND U1_u20_u3_N8032363  1e11 TC=0,0 
R_U1_u20_u3_R29         GND U1_u20_u3_N8032860  1e11 TC=0,0 
X_U1_u20_u3_U240         U1_u20_N13640653 U1_u20_u3_SZ INVERTER
X_U1_u20_u3_S12    U1_u20_u3_CLKZ GND U1_u20_u3_N8037538 U1_u20_u3_N8035344
+  SDC_U1_u20_u3_S12 
X_U1_u20_u3_U249         U1_u20_S U1_u20_u3_N13650456 INVERTER
X_U1_u20_U253         U1_u20_N13634238 U1_C_IN U1_u20_N13634611 AND
X_U1_u20_U255         U1_u20_N13670242 U1_N17048203 U1_u20_CLRZ AND
X_U1_u20_U245         U1_u20_N13639852 U1_SHOTIN U1_SHOT_OUT OR
E_U1_u20_u2_ABM1         U1_u20_u2_N8032072 0 VALUE { if ( V(U1_u20_N13640653)>
+  0.5,  
+ V(U1_u20_u2_N13650456),  
+ V(U1_u20_u2_N13650464) )   }
X_U1_u20_u2_U244         U1_u20_u2_N8033152 U1_u20_CLRZ U1_u20_u2_N8032860
+  NAND2_BASIC
X_U1_u20_u2_S10    U1_u20_N13636996 GND U1_u20_u2_N8032363 U1_u20_u2_N8032860
+  SDC_U1_u20_u2_S10 
X_U1_u20_u2_U245         U1_u20_u2_N8035344 U1_u20_Q0 INVERTER
X_U1_u20_u2_U247         U1_u20_u2_N8035851 U1_u20_N13639199 INVERTER
X_U1_u20_u2_U243         U1_u20_u2_N8032363 U1_u20_u2_N8033152 INVERTER
X_U1_u20_u2_S9    U1_u20_u2_CLKZ GND U1_u20_u2_N8032072 U1_u20_u2_N8032363
+  SDC_U1_u20_u2_S9 
R_U1_u20_u2_R31         GND U1_u20_u2_N8032072  1e11 TC=0,0 
X_U1_u20_u2_U242         U1_u20_N13636996 U1_u20_u2_CLKZ INVERTER
X_U1_u20_u2_U250         U1_u20_N13641400 U1_u20_u2_N13650464 INVERTER
X_U1_u20_u2_S11    U1_u20_N13636996 GND U1_u20_u2_N8032860 U1_u20_u2_N8035344
+  SDC_U1_u20_u2_S11 
X_U1_u20_u2_U248         U1_u20_u2_N8035851 U1_u20_CLRZ U1_u20_u2_N8037538
+  NAND2_BASIC
X_U1_u20_u2_U246         U1_u20_u2_N8035344 U1_u20_u2_N8035851 INVERTER
R_U1_u20_u2_R28         GND U1_u20_u2_N8032363  1e11 TC=0,0 
R_U1_u20_u2_R29         GND U1_u20_u2_N8032860  1e11 TC=0,0 
X_U1_u20_u2_U240         U1_u20_N13640653 U1_u20_u2_SZ INVERTER
X_U1_u20_u2_S12    U1_u20_u2_CLKZ GND U1_u20_u2_N8037538 U1_u20_u2_N8035344
+  SDC_U1_u20_u2_S12 
X_U1_u20_u2_U249         U1_u20_CO U1_u20_u2_N13650456 INVERTER
X_U1_u20_U250         U1_OCM U1_B_IN U1_u20_N13634634 AND
X_U1_u20_U251         U1_OCM U1_B_IN U1_u20_N13634238 XOR2_BASIC
X_U1_u20_U4         U1_u20_N13639199 U1_u20_Q1 U1_u20_N13639471 NOR2_BASIC
X_U1_u20_U248         U1_ON1 U1_u20_N13681583 INVERTER
R_U1_u20_R28         U1_u20_N137000291 GND  1e8 TC=0,0 
X_U1_u20_U241         U1_u20_N13639852 U1_u20_N13640653 INVERTER
X_U1_u20_U5         U1_u20_N13639199 U1_u20_N13641212 U1_u20_N13641400
+  NOR2_BASIC
X_U1_u20_U247         U1_u20_N13636996 U1_u20_CLKD INVERTER
X_U1_u20_U243         U1_u20_N13634611 U1_u20_N13634634 U1_u20_CO OR
X_U1_u20_U244         U1_u20_Q0 U1_u20_Q1 U1_u20_N13639852 OR
X_U1_u20_U252         U1_u20_N13634238 U1_C_IN U1_u20_S XOR2_BASIC
X_U1_u20_U259         U1_u20_N137000291 U1_u20_N13670242 U1_u20_CLKD
+  U1_LOOP_RAW U1_u20_N13681583 GND DFFSR_RHPBASIC1V
X_U1_u20_U254         U1_ON1 U1_SHOTIN U1_u20_N13636996 AND
X_U1_S6    U1_DRH2 GND DRVH1 SW1 DCAP_ch1_U1_S6 
X_U1_U252         U1_N16616643 U1_N16949652 U1_OOACHECK AND
R_U1_R11         GND U1_N167897330  1Meg  
E_U1_ABM41         U1_PWMMODE 0 VALUE { if(V(U1_OOAPULSE) >0.5 |  
+ V(GND) >0.5,1,0)   }
X_U1_U49         U1_N17959314 U1_N17959306 U1_NOCL_LATCH U1_N167894250
+  SRNANDLATCHSHP_BASIC
X_U1_U188         U1_N8028310 U1_N8028358 BUFFER_PS PARAMS: VHI=1 VLO=0
+  VTHRESH=500E-3 TPLH=2E-9 TPHL=10E-9 TR=1E-9 TF=1E-9
X_U1_U249         U1_ON1 U1_ONB INVERTER
X_U1_U253         U1_BLNKM U1_N15484100 U1_OCMDIS OR
X_U1_U17         VREG5 VBST1 d_d2
X_U1_U272         U1_LOWREADY U1_SSENDSET U1_UVP U1_N17693264 NOR3
X_U1_U299         U1_N16999020 U1_TRES U1_TRES U1_N16999013 NAND3_PS PARAMS:
+  VHI=1 VLO=0 VTHRESH=500E-3 TPLH=1E-9 TPHL=1E-9 TR=1E-9 TF=1E-9
X_U1_U264         U1_N8024778 U1_SSENDSET U1_N8024792 SSEND1 NAND3_PS PARAMS:
+  VHI=1 VLO=0 VTHRESH=500E-3 TPLH=1E-9 TPHL=1E-9 TR=1E-9 TF=1E-9
R_R11         GND N166550283  1Meg  
E_ABM1         TODELAY 0 VALUE { if( V(PGOOD1)>0.5 &  
+ V(PGOOD2) >0.5,1,0)   }
X_U240         N15656858 N16653275 INVERTER
V_V7         N15159302 GND  
+PWL 0 0 0.01u 0 .011u 5 
X_U254         N15656934 N15656858 N16653133 AND
R_R13         N16653275 N15656792  1  
X_U191         TODELAY DELAY2 BUFFER_PS PARAMS: VHI=1 VLO=0 VTHRESH=500E-3
+  TPLH={(1- MODE*0.9) *0.5m} TPHL=10u TR=1E-9 TF=1E-9
X_U219         PGEN_INV PGEN INVERTER
E_ABM8         PGEN_INV 0 VALUE { if( V(N15656952)>0.5,  
+ V(DELAY2),  
+ V(DELAY) )  }
X_U220         PGEN N15657028 INVERTER
C_C13         GND N15656792  1n  
C_U2_C10         GND U2_RMP  4p IC=0 TC=0,0 
E_U2_ABM14         U2_N15131182 0 VALUE { if( V(DRVL2)>2.5 & V(SW2) <0.5,  
+ V(SW2),  
+ V(GND) )  }
X_U2_U330          VFB2 U2_LOW_C COMP_HYS2 PARAMS:  TH=1.85 HYS=0.1   
X_U2_U275         U2_DRVOFF U2_DRVOFF U2_HIREADY U2_UVP U2_HIDRIVE_NON_DELAYED
+  NOR4
X_U2_U301         ENCIRD2 U2_N15864378 U2_N15864500 AND
X_U2_U295         U2_N8024792 U2_DRVHPREBIAS U2_HIDRIVE NAND2_PS PARAMS: VHI=1
+  VLO=0 VTHRESH=500E-3 TPLH=1E-9 TPHL=1E-9 TR=1E-9 TF=1E-9
X_U2_U305         U2_N16072657 U2_ON1 U2_ON1_BAR_DELAY U2_N16072695 NAND3_PS
+  PARAMS: VHI=1 VLO=0 VTHRESH=500E-3 TPLH=1E-9 TPHL=1E-9 TR=1E-9 TF=1E-9
R_U2_R37         GND U2_N15791614  10k TC=0,0 
X_U2_S14    U2_DQOS GND U2_N15791614 GND DCAP_ch2_U2_S14 
R_U2_R16         GND U2_N16084940  1Meg  
R_U2_R27         GND U2_QRMP  1e8 TC=0,0 
X_U2_U189         U2_N8030134 U2_LOWREADY INV_PS PARAMS: VHI=1 VLO=0
+  VTHRESH=500E-3 TPLH=270n TPHL=10n TR=1E-9 TF=1E-9
X_U2_U251         U2_LUPB U2_LUPB U2_N166812030 OR
X_U2_U306         U2_ON U2_N16072501 INVERTER
X_U2_U219         U2_N16196667 U2_DQOS_IN U2_DQOS OR
X_U2_U35         U2_OV U2_OVD DELAY PARAMS: T=500
R_U2_R5         GND U2_OOAPULSE  1Meg TC=0,0 
E_U2_ABM61         U2_LLAVG_NEW 0 VALUE { if(V(U2_LLAVG)>0.3,V(U2_LLAVG),0.3)  
+   }
X_U2_U273         U2_N15494388 U2_OCMDIS U2_OCMDIS U2_OCM NAND3_PS PARAMS:
+  VHI=1 VLO=0 VTHRESH=500E-3 TPLH=1E-9 TPHL=1E-9 TR=1E-9 TF=1E-9
X_U2_U194         U2_N166810810 U2_TRES BUFFER_PS PARAMS: VHI=1 VLO=0
+  VTHRESH=500E-3 TPLH=70n TPHL=70n TR=1E-9 TF=1E-9
E_U2_ABM49         U2_N16788661 0 VALUE { if(V(U2_HIDRIVE) < 0.5 &  
+ V(U2_LOWDRIVE) <0.5,1,0)   }
R_U2_R6         GND U2_PWMMODE  1Meg TC=0,0 
X_U2_U48         U2_UVS U2_N15397273 U2_UVLATCH U2_N166820473
+  SRNANDLATCHSHP_BASIC
R_U2_R23         GND PGOOD2  1e6  
E_U2_ABM33         U2_OVS 0 VALUE { if( V(ENCIRD2)> 0.5 &  
+ V(U2_OVD)>0.5,1,0)   }
X_U2_U271         U2_DRVHPREBIAS U2_N166840711 U2_ENLOW1 NOR2
X_U2_U241         U2_BLNKM U2_LOOP_RAW U2_N15892913 OR
E_U2_ABM8         U2_MODECHECK 0 VALUE { if( V(U2_N16061205)>0.5,  
+ -V(U2_OCLTHR),  
+ V(GND) )  }
X_U2_U253         U2_BLNKM U2_N15484100 U2_OCMDIS OR
V_U2_V87         U2_N8028602 U2_MODECHECK -5m
X_U2_U280         U2_LOWDRIVE U2_N166827831 INVERTER
E_U2_ABM34         U2_UVP 0 VALUE { if( V(U2_UVLATCH)> 0.5 &  
+ V(ENUVPG2)>0.5,1,0)   }
X_U2_U249         U2_ON1 U2_ONB INVERTER
E_U2_ABM6         U2_1P125VREF 0 VALUE { V(U2_V2P0) * 1.15    }
X_U2_U261         U2_ZC U2_N8024896 U2_N8024896 U2_N8024888 NAND3_PS PARAMS:
+  VHI=1 VLO=0 VTHRESH=500E-3 TPLH=1E-9 TPHL=1E-9 TR=1E-9 TF=1E-9
X_U2_U250         U2_OVP U2_N15860612 INVERTER
X_U2_S8    U2_DRL1 GND VREG5 DRVL2 DCAP_ch2_U2_S8 
X_U2_U270         U2_N8029732 U2_N166825591 U2_N8025810 NOR2
C_U2_C5         GND U2_LLAVG  3p IC=0 TC=0,0 
X_U2_S7    U2_DRL2 GND DRVL2 GND DCAP_ch2_U2_S7 
X_U2_U238         ENCIRD2 U2_N8026108 U2_N8028554 AND
X_U2_U263         U2_SSENDSET ENCIRD2 ENCIRD2 U2_N8024778 NAND3_PS PARAMS:
+  VHI=1 VLO=0 VTHRESH=500E-3 TPLH=1E-9 TPHL=1E-9 TR=1E-9 TF=1E-9
X_U2_S2    U2_DISCH GND SW2 GND DCAP_ch2_U2_S2 
X_U2_U303         U2_N15860612 U2_N15860612 U2_N15864378 AND
X_U2_U314         U2_HIDRIVE_NON_DELAYED U2_N16078343 U2_N16078511 AND
X_U2_U247         U2_LOWREADY U2_N166825591 INVERTER
X_U2_U279         U2_HIDRIVE U2_N166835372 INVERTER
X_U2_U214         U2_N15641500 U2_DRL2 BUFFER_PS PARAMS: VHI=1 VLO=0
+  VTHRESH=500E-3 TPLH=10E-9 TPHL=2E-9 TR=1E-9 TF=1E-9
X_U2_S5    U2_DRH1 GND VBST2 DRVH2 DCAP_ch2_U2_S5 
E_U2_ABM20         U2_N166810810 0 VALUE { if( V(U2_TON)   
+ <V(U2_LLAVG_NEW),1,0)   }
X_U2_U23          VFB2 U2_1P125VREF U2_HYSTVAL U2_OV COMP_HYS
E_U2_E1         GND U2_OCLTHR GND CS2 -.125
X_U2_U142         U2_ONSET U2_OVPX U2_N8028342 U2_OCL U2_N8028310 OR4_PS
+  PARAMS: VHI=1 VLO=0 VTHRESH=500E-3 TPLH=1E-9 TPHL=1E-9 TR=1E-9 TF=1E-9
X_U2_U282         U2_HIDRIVE U2_N8030314 U2_N8031562 AND
X_U2_U193         U2_HIREADY U2_DQOS_IN BUFFER_PS PARAMS: VHI=1 VLO=0
+  VTHRESH=500E-3 TPLH=2E-9 TPHL=2E-9 TR=1E-9 TF=1E-9
X_U2_U283         U2_N8029314 U2_N166835372 U2_N166809650 AND
R_U2_R39         U2_N15670337 U2_N15668539  3Meg TC=0,0 
X_U2_U213         U2_N8031562 U2_DRH1 BUFFER_PS PARAMS: VHI=1 VLO=0
+  VTHRESH=500E-3 TPLH=10E-9 TPHL=2E-9 TR=1E-9 TF=1E-9
G_U2_ABMII3         V5FILT U2_OOATIME VALUE { if(V(U2_OOACHECK)>0.5, 0.1u,0)   
+  }
X_U2_U327         U2_N16788661 U2_ON1 U2_N16788634 N16788828
+  SRLATCHRHP_BASIC_GEN PARAMS: VDD=1 VSS=0 VTHRESH=0.5
E_U2_ABM10         U2_LUPB 0 VALUE { if( V(U2_REFEFF)  
+ >V(VFB2) ,1,0)   }
R_U2_R9         U2_LLO U2_N15131182  100  
X_U2_U277         U2_ENLOW2 U2_N8032134 U2_N8031784 OR
X_U2_U268         U2_N8031166 ENCIRD2 U2_N8031174 U2_N8028310 NAND3_PS PARAMS:
+  VHI=1 VLO=0 VTHRESH=500E-3 TPLH=1E-9 TPHL=1E-9 TR=1E-9 TF=1E-9
E_U2_ABM13         PGOOD2 0 VALUE { if( V(U2_HIGH_C)<0.5  
+ & V(U2_LOW_C)>0.5   
+ & V(U2_N16693786)>0.5, 1, 0 )  }
X_U2_U302         U2_DRVH_EVENT U2_QRMP U2_N166821650 MONOPOS_PS PARAMS: PW=2n
E_U2_ABM42         U2_OOA 0 VALUE { if(V(VINOK) >0.5 & V(VINOK) <5.5 &  
+ V(VINOK) >0.5,1,0)   }
E_U2_ABM46         U2_RAMP 0 VALUE { if(V(ENCIRD2)>0.5,  
+ LIMIT((V(U2_RMP)-0.01),-10m,10m),0)   }
X_U2_U188         U2_N8028310 U2_N8028358 BUFFER_PS PARAMS: VHI=1 VLO=0
+  VTHRESH=500E-3 TPLH=2E-9 TPHL=10E-9 TR=1E-9 TF=1E-9
X_U2_U17         VREG5 VBST2 d_d2
E_U2_ABM18         U2_NOCL_CHECK 0 VALUE { if( V(U2_LLO)  
+ >V(U2_N15896218) ,0,1)   }
X_U2_U195         U2_N16078343 U2_HIDRIVE_NON_DELAYED INV_PS PARAMS: VHI=1
+  VLO=0 VTHRESH=500E-3 TPLH=1E-9 TPHL=2E-9 TR=1E-9 TF=1E-9
C_U2_C176         0 U2_INDELAYED2  1n  
R_U2_R25         GND U2_RMP  1e8 TC=0,0 
X_U2_U255         U2_ZC U2_N15864690 U2_N15864586 OR
X_U2_U192         DRVL2 U2_N8029732 BUFFER_PS PARAMS: VHI=1 VLO=0
+  VTHRESH=500E-3 TPLH=8n TPHL=2E-9 TR=1E-9 TF=1E-9
X_U2_U304         U2_ON1 U2_N16072501 U2_N16072501 U2_N16072573 NAND3_PS
+  PARAMS: VHI=1 VLO=0 VTHRESH=500E-3 TPLH=1E-9 TPHL=1E-9 TR=1E-9 TF=1E-9
X_U2_U262         U2_N8024888 U2_ZC U2_TBLNKB ENCIRD2 NAND3_PS PARAMS: VHI=1
+  VLO=0 VTHRESH=500E-3 TPLH=1E-9 TPHL=1E-9 TR=1E-9 TF=1E-9
X_U2_U256         U2_EN_VIN_TONEXT GND U2_N15864690 AND
C_U2_C15         GND U2_OOATIME  3.7p IC=0 TC=0,0 
E_U2_ABM547         U2_OOAPULSE 0 VALUE { if(V(U2_OOATIME)>1,1,0)    }
X_U2_U218         U2_N16072657 U2_DRVOFF U2_N16072573 OR
G_U2_ABMII4         V5FILT U2_RMP VALUE { if(V(ENCIRD2) > 0.5, 12n , 0)    }
X_U2_U316         GND GND U2_N16061205 OR
X_U2_U312         U2_NOCL_CHECK U2_NOCL_CHECK U2_N15892887 OR
X_U2_U307         U2_ON1 U2_ON1_BAR INVERTER
X_U2_U217         U2_DQOS U2_N8031828 U2_TOS OR
X_U2_U215         U2_N8031494 U2_DRL1 BUFFER_PS PARAMS: VHI=1 VLO=0
+  VTHRESH=500E-3 TPLH=10E-9 TPHL=2E-9 TR=1E-9 TF=1E-9
X_U2_U274         ENCIRD2 U2_DRVOFF INVERTER
X_U2_U289         U2_DRL2 U2_N8028504 INVERTER
X_U2_U26         U2_UV U2_UVD DELAY PARAMS: T=250000
E_U2_ABM5         U2_P675VREF 0 VALUE { V(U2_V2P0) * 0.6    }
X_U2_U309         U2_N15892913 U2_N15892887 U2_LBB AND
V_U2_V89         U2_V2P0 GND 2
X_U2_U50         U2_OVS U2_N8029198 U2_OVLATCH U2_N8029192 srnandlatchshp_basic
X_U2_U293         U2_EN_VIN_TONEXT GND U2_B_IN AND
X_U2_U248         U2_HIREADY U2_N166840711 INVERTER
R_U2_R35         U2_TON U2_N15768842  710k TC=0,0 
X_U2_U191         U2_N8032008 U2_N8031306 BUFFER_PS PARAMS: VHI=1 VLO=0
+  VTHRESH=500E-3 TPLH=2E-9 TPHL=20n TR=1E-9 TF=1E-9
X_U2_U329          VFB2 U2_HIGH_C COMP_HYS2 PARAMS:  TH=2.15 HYS=0.1   
X_U2_U278         U2_HIREADY U2_N8032008 INVERTER
E_U2_ABM58         U2_OVPX 0 VALUE { if(V(U2_LLAVG)>5.9,1,0)    }
X_U2_U259         U2_N8028968 U2_OCLDIS U2_OCLDIS U2_OCL NAND3_PS PARAMS: VHI=1
+  VLO=0 VTHRESH=500E-3 TPLH=1E-9 TPHL=1E-9 TR=1E-9 TF=1E-9
X_U2_S16    U2_OOACHECK GND U2_OOATIME GND DCAP_ch2_U2_S16 
X_U2_U321         U2_NOCL_CHECK U2_N16090906 INVERTER
E_U2_E7         U2_RMPIN GND U2_RMP GND 1
X_U2_U267         U2_N8028310 U2_N8031166 U2_SHOT_OUT U2_SHOT_OUT NAND3_PS
+  PARAMS: VHI=1 VLO=0 VTHRESH=500E-3 TPLH=1E-9 TPHL=1E-9 TR=1E-9 TF=1E-9
X_U2_U240         U2_NCL U2_N8028596 INVERTER
R_U2_R12         GND U2_N8029192  1Meg  
X_U2_U266         U2_N8024982 U2_ON U2_SHOT_OUT ENCIRD2 NAND3_PS PARAMS: VHI=1
+  VLO=0 VTHRESH=500E-3 TPLH=1E-9 TPHL=1E-9 TR=1E-9 TF=1E-9
X_U2_U243         U2_BLNKM U2_N8028596 U2_N8024896 OR
R_U2_R275         U2_N16078511 U2_INDELAYED2  40.40  
E_U2_ABM19         U2_LOWDRIVE_MUX 0 VALUE { if( V(U2_OVP)>0.5,  
+ V(U2_LOWRIVE_LATCH),  
+ V(U2_LOWDRIVE) )  }
X_U2_U244         U2_N8030134 U2_N8031174 INVERTER
X_U2_U246         U2_N8028358 U2_TBLNKB INVERTER