* PSpice Model Editor - Version 16.0.0

*$
* TPS53313
*****************************************************************************
*  (C) Copyright 2011 Texas Instruments Incorporated. All rights reserved.
*****************************************************************************
** This model is designed as an aid for customers of Texas Instruments.
** TI and its licensors and suppliers make no warrenties, either expressed
** or implied, with respect to this model, including the warranties of 
** merchantability or fitness for a particular purpose.  The model is
** provided solely on an "as is" basis.  The entire risk as to its quality
** and performance is with the customer
*****************************************************************************
*
** Released by: Analog eLab Design Center, Texas Instruments Inc.
* Part: TPS53313
* Date: 18NOV2011
* Model Type: TRANSIENT
* Simulator: PSPICE
* Simulator Version: 16.0.0.P001
* EVM Order Number: TPS53313EVM - 078
* EVM Users Guide: 
* Datasheet: SLUSAS8 NOV-2011
*
* Model Version: Final 1.00
*
*****************************************************************************
*
* Updates:
*
* Final 1.00
* Release to Web.
*
*****************************************************************************
.SUBCKT TPS53313_TRANS PwPd VIN1 VIN2 VIN3 VIN4 EN FB PG VBST SW1 SW2 SW3
+ SW4 PGND1 PGND2 PGND3 PGND4 PGND5 PGND6 BP3 BP7 COMP RTSYNC MODESS
+ GND PARAMS: FASTSS=1
E_E4         RCOMP GND RAMPR GND 1
X_S16    ENZC GND COMPI COMPSH TPS53313_TRANS_S16 
C_C9         DL GND  10p IC=0 TC=0,0 
E_ABM3         N17664535 0 VALUE { if( V(LDRV_PRE) > 2.5,  
+ -V(SWI),0)   }
C_C4         N17927113 AMPR  10p  TC=0,0 
E_ABM6         OCB 0 VALUE { if( V(OCBOT) > V(OCLIM) * 20m  & V(PO)> 2.5,  
+ 5,0)   }
C_U5_C15         GND U5_COUNT  3n IC=0 TC=0,0 
C_U5_C6         U5_LLO GND  100p IC=0 TC=0,0 
X_U5_S15    U5_N01369 GND U5_N01237 U5_COUNT ZC_U5_S15 
R_U5_R39         GND U5_N01237  1e8 TC=0,0 
G_U5_ABMII5         BP7 U5_N01237 VALUE { if(V(U5_ZCEVENT)>2.5, .03,0)    }
X_U5_U104         RESCOUNT PO U5_N01405 AND2_BASIC_GEN PARAMS: VDD=5 VSS=0
+  VTHRESH=2.5
E_U5_ABM4         U5_N00193 0 VALUE { if( V(BOTON) > 2.5,  
+ V(SWI),0)   }
R_U5_R12         U5_LLO U5_N00193  100  
X_U5_U581         U5_N01113 U5_ZCEVENT U5_N01119 MONOPOS_PS PARAMS: PW=300n
R_U5_R48         GND U5_N01119  1e8  
E_U5_E6         U5_N05573 GND U5_N00161 GND 1
X_U5_U105         U5_N05573 SKIP ZC AND2_BASIC_GEN PARAMS: VDD=5 VSS=0
+  VTHRESH=2.5
E_U5_ABM73         U5_N01369 0 VALUE { if(V(U5_ZCEVENT)>2.5  
+ & V(U5_COUNT) <5.5 & V(PGOODEN) >2.5, 1,0)   }
X_U5_U633         U5_ZCEVENT ZC U5_N01113 OR2_BASIC_GEN PARAMS: VDD=5 VSS=0
+  VTHRESH=2.5
E_U5_ABM64         ENZC 0 VALUE { if(V(U5_COUNT)>4.5,5,0)    }
X_U5_S8    U5_N01405 GND U5_COUNT GND ZC_U5_S8 
R_U5_R47         BP7 U5_COUNT  1e9 TC=0,0 
E_U5_ABM56         U5_N00161 0 VALUE { if(V(U5_LLO)> 0.001, 5,0)    }
R_R11         OCBOT N17664535  100  
X_U12         N17753180 SWI d_d1 PARAMS:
X_S19    PO GND COMP N17481765 TPS53313_TRANS_S19 
E_ABM5         N17963709 0 VALUE { if( V(COMPI) > V(RCOMP) ,  
+ 5,0)   }
E_ABM77         AMPR 0 VALUE { ( V(VINBY9)  
+ +V(P7) )    }
R_R296         SWI SW3  .0001m  
X_U587         N17481996 CLKSET BUF_DELAY_BASIC_GEN PARAMS: VDD=5 VSS=0
+  VTHRESH=2.5 DELAY=10n
X_S2    CLKRES GND RAMPR P7 TPS53313_TRANS_S2 
X_U91         CLKSET SSET INV_BASIC_GEN PARAMS: VDD=5 VSS=0 VTHRESH=2.5
X_U76         N17483279 ENSS N17483277 N17482639 AND3_BASIC_GEN PARAMS: VDD=5
+  VSS=0 VTHRESH=2.5
C_C16         GND OCCOUNT  3n IC=0 TC=0,0 
R_R290         PGND PGND3  .0001m  
R_R40         GND N17672774  1e8 TC=0,0 
R_R286         VINI VIN2  .0001m  
X_S18    N17672832 GND N17672774 OCCOUNT TPS53313_TRANS_S18 
X_U110         N17696171 PRES N17482644 AND2_BASIC_GEN PARAMS: VDD=5 VSS=0
+  VTHRESH=2.5
X_U637         N17672477 PENR OCLsdn OCLSDNB srlatchshp_basic_gen PARAMS:
+  PARAMS: VDD=5 VSS=0 VTHRESH=2.5
X_U635         N026892 OCB OCLIMS OR2_BASIC_GEN PARAMS: VDD=5 VSS=0 VTHRESH=2.5
E_ABM74         N17853071 0 VALUE { if( V(ENZC) >2.5,   
+ V(N17928359),  
+ V(N17836125) )   }
X_U3_U93         UVP UVPCLEAR INV_BASIC_GEN PARAMS: VDD=5 VSS=0 VTHRESH=2.5
R_U3_R26         GND U3_N052001  1Meg  
R_U3_R25         GND U3_N052561  1Meg  
E_U3_ABM11         U3_N01061 0 VALUE { IF(V(FB) < 0.498 &  
+ V(SSEND) >2.5,5,0)   }
X_U3_U82         U3_OVLATCH PO OVP AND2_BASIC_GEN PARAMS: VDD=5 VSS=0
+  VTHRESH=2.5
R_U3_R30         GND U3_N00697  1Meg  
X_U3_U577         U3_N01061 U3_N00713 BUF_DELAY_BASIC_GEN PARAMS: VDD=5 VSS=0
+  VTHRESH=2.5 DELAY=10u
X_U3_U92         OVP OVPCLEAR INV_BASIC_GEN PARAMS: VDD=5 VSS=0 VTHRESH=2.5
E_U3_ABM12         U3_OV 0 VALUE { IF(V(FB) > 0.702 &  
+ V(PO) >2.5,5,0)   }
E_U3_ABM52         U3_N052840 0 VALUE { if( V(VINI)>1 &  
+ V(POR) >2.5,5,0)   }
X_U3_U578         U3_N00713 U3_N00697 U3_UVLATCH U3_N052001
+  srlatchrhp_basic_gen PARAMS: VDD=5 VSS=0 VTHRESH=2.5
X_U3_S12    U3_DISCH GND SWI GND OVUVP_U3_S12 
X_U3_U83         U3_UVLATCH SSEND UVP AND2_BASIC_GEN PARAMS: VDD=5 VSS=0
+  VTHRESH=2.5
X_U3_U574         U3_OVREADY UVP U3_OVLATCH U3_N052561 srlatchrhp_basic_gen
+  PARAMS: VDD=5 VSS=0 VTHRESH=2.5
R_U3_R29         GND UVP  1Meg  
X_U3_U575         U3_N052840 U3_DISCH BUF_DELAY_BASIC_GEN PARAMS: VDD=5 VSS=0
+  VTHRESH=2.5 DELAY=0.5u
X_U3_U573         U3_OV U3_OVREADY BUF_DELAY_BASIC_GEN PARAMS: VDD=5 VSS=0
+  VTHRESH=2.5 DELAY=1u
R_R14         DL N17676561  10  
X_U4         N17481765 COMP d_d2 PARAMS:
X_U84         N17921522 N011971 CLKRES AND2_BASIC_GEN PARAMS: VDD=5 VSS=0
+  VTHRESH=2.5
R_R285         VINI VIN1  .0001m  
X_U638         N30102 N17695204 PRES N17695164 srlatchshp_basic_gen PARAMS:
+  PARAMS: VDD=5 VSS=0 VTHRESH=5
E_U4_ABM32         U4_N01141 0 VALUE { ( V(U4_N00841)  
+ +V(U4_N00860)  
+ +V(U4_N00881) )  }
E_U4_ABM34         RTMUL 0 VALUE { ( V(U4_N01141)  
+ +V(U4_N01164)  
+ +V(U4_N01212) )  }
E_U4_ABM26         U4_N00860 0 VALUE { if(V(RT)< 455m & V(RT)> 430m, 1, 0)    }
E_U4_ABM30         U4_N01063 0 VALUE { if(V(RT)< 1.22 & V(RT)> 1.18, 0.3, 0)   
+  }
E_U4_ABM27         U4_N00881 0 VALUE { if(V(RT)< 640m & V(RT)> 620m, 0.75, 0)  
+   }
E_U4_ABM33         U4_N01164 0 VALUE { ( V(U4_N01013)  
+ +V(U4_N01029)  
+ +V(U4_N01063) )  }
E_U4_ABM31         U4_N01212 0 VALUE { if(V(RT)< 1.52 & V(RT)> 1.48, 0.25, 0)  
+   }
E_U4_ABM28         U4_N01013 0 VALUE { if(V(RT)< 820m & V(RT)> 780m, 0.6, 0)   
+  }
E_U4_ABM25         U4_N00841 0 VALUE { if(V(RT)< 300m, 1.5, 0)    }
E_U4_ABM29         U4_N01029 0 VALUE { if(V(RT)< 1.02 & V(RT)> 980m, 0.5, 0)   
+  }
R_R289         PGND PGND2  .0001m  
X_U631         CLKSET N17921599 N17921522 N17921574 srlatchshp_basic_gen
+  PARAMS: VDD=5 VSS=0 VTHRESH=2.5
X_U94         LDRV_PRE N17483279 INV_BASIC_GEN PARAMS: VDD=5 VSS=0 VTHRESH=2.5
X_U97         N17921522 N011970 INV_BASIC_GEN PARAMS: VDD=5 VSS=0 VTHRESH=2.5
V_V6         7P GND 7
E_ABM8         N17690809 0 VALUE { if( V(N17690788) > 2.5,  
+ V(DL),5)   }
X_U78         N17692455 PO UVPCLEAR N17696171 AND3_BASIC_GEN PARAMS: VDD=5
+  VSS=0 VTHRESH=2.5
R_R13         OCTOP N17666989  100  
R_R50         BP7 OCCOUNT  1e9 TC=0,0 
R_R268         GND N17481555  100MEG  
X_U106         PGOODEN ENZC N17690788 AND2_BASIC_GEN PARAMS: VDD=5 VSS=0
+  VTHRESH=2.5
X_U582         N17672708 OCEVENT N17672711 MONOPOS_PS PARAMS: PW=300n
R_R271         GND OCLBAR  100MEG  
X_S3    RSET GND N17927113 AMPR TPS53313_TRANS_S3 
X_S7    N17481839 GND HDRV SWI TPS53313_TRANS_S7 
X_U580         TOPON HIEDGE N17697806 MONOPOS_PS PARAMS: PW=10n
X_U109         OCLATCH ZC N17672477 AND2_BASIC_GEN PARAMS: VDD=5 VSS=0
+  VTHRESH=2.5
V_V12         N17753180 PGND -.25
E_ABM19         N17481996 0 VALUE { if( V(RTSAM)>2.5,   
+ V(RTSYNC),  
+ V(N17853071) )  }
X_U72         OVPCLEAR NOOCTOP UVPCLEAR TOPON AND3_BASIC_GEN PARAMS: VDD=5
+  VSS=0 VTHRESH=2.5
R_R282         GND N17695204  100MEG  
X_U105         HIEDGE DL RESCOUNT AND2_BASIC_GEN PARAMS: VDD=5 VSS=0
+  VTHRESH=2.5
X_U96         BOTON N17483277 INV_BASIC_GEN PARAMS: VDD=5 VSS=0 VTHRESH=2.5
X_U74         N17481751 ENSS N17482270 N17481839 AND3_BASIC_GEN PARAMS: VDD=5
+  VSS=0 VTHRESH=2.5
E_ABM26         RAMPF 0 VALUE { LIMIT(V(N17927113),V(COMPSH), V(ampR))    }
X_S36    HDRV SWI VINI SWI TPS53313_TRANS_S36 
R_R280         GND N17669865  100MEG  
X_U634         OCEVENT OCT N17672708 OR2_BASIC_GEN PARAMS: VDD=5 VSS=0
+  VTHRESH=2.5
X_U101         PGOODEN PGD INV_BASIC_GEN PARAMS: VDD=5 VSS=0 VTHRESH=2.5
X_U70         N17482644 OVP N17482783 OR2_BASIC_GEN PARAMS: VDD=5 VSS=0
+  VTHRESH=2.5
X_U103         OCT N17668477 INV_BASIC_GEN PARAMS: VDD=5 VSS=0 VTHRESH=2.5
G_ABM2I1         N17927113 AMPR VALUE { if(V(ENZC) > 2.5, V(OSCRAMP)* 0.8,
+  V(OSCRAMP))    }
X_U108         N17668477 HDRV N17670959 AND2_BASIC_GEN PARAMS: VDD=5 VSS=0
+  VTHRESH=2.5
X_U11         N034851 VINI d_d1 PARAMS:
E_E6         N17596218 GND AMPR GND 1
X_S11    N17482639 GND LDRV PGND TPS53313_TRANS_S11 
X_U597         OCT N17670959 N17669865 OCRESCOUNT srlatchrhp_basic_gen PARAMS:
+  PARAMS: VDD=5 VSS=0 VTHRESH=2.5
X_U632         ZC TOPON DLb N17676561 srlatchrhp_basic_gen PARAMS:
+  VDD=5 VSS=0 VTHRESH=2.5
X_U85         N17963709 N17967774 RSET AND2_BASIC_GEN PARAMS: VDD=5 VSS=0
+  VTHRESH=2.5
X_U589         N016390 N17672610 BUF_DELAY_BASIC_GEN PARAMS: VDD=5 VSS=0
+  VTHRESH=2.5 DELAY=1u
C_C10         N17481765 COMP  200p IC=0 
X_S10    LDRV_PRE GND BP7 LDRV TPS53313_TRANS_S10 
X_U_U576         PEN PO BUF_DELAY_BASIC_GEN PARAMS: VDD=5 VSS=0 VTHRESH=2.5
+  DELAY=.65m
E_U_ABM24         U_N03434 0 VALUE { if(V(VINI)>4.4,6.2,0)    }
R_U_R10         BP3 U_N03296  10  
E_U_ABM26         U_N03296 0 VALUE { if(V(VINI)>4.4,3.3,0)    }
R_U_R3         EN BP7  1.6Meg TC=0,0 
R_U_R9         ENSS EN  10k  
R_U_R12         BP7 U_N03434  10  
X_U_U99         PO POR INV_BASIC_GEN PARAMS: VDD=5 VSS=0 VTHRESH=2.5
C_U_C4         BP3 GND  10p IC=0 TC=0,0 
C_U_C6         BP7 GND  10p IC=0 TC=0,0 
C_U_C3         ENSS GND  10p IC=0 TC=0,0 
R_U_R8         GND ENSS  1e8  
E_U_ABM2         PEN 0 VALUE { if( V(ENSS) > 2.5 &  
+ V(VINI) >4.3,5,0)   }
R_R12         RTSAM RT  10k  
R_R297         SWI SW4  .0001m  
X_U10         RAMPR 7P d_d1 PARAMS:
E_E5         RT GND RTSYNC GND 1
C_C12         PGND SWI  10p IC=0 
C_C1         RAMPR P7  10p IC=0 TC=0,0 
E_E7         COMPI GND COMP GND 1
X_S37    LDRV PGND SWI PGND TPS53313_TRANS_S37 
E_ABM65         N026892 0 VALUE { if(V(OCCOUNT)>4.5,5,0)    }
E_ABM52         N17666989 0 VALUE { if( V(HDRV_PRE) > 2.5,  
+ V(VINI) -  
+ V(SWI), 0)  }
X_U596         OCLIMS PENR OCLATCH OCLBAR srlatchrhp_basic_gen PARAMS:
+  VDD=5 VSS=0 VTHRESH=2.5
R_R276         GND COMPSH  100MEG  
R_R45         GND N17697806  1e8  
X_U79         N17690809 OCLSDNB N17690830 N17692455 AND3_BASIC_GEN PARAMS:
+  VDD=5 VSS=0 VTHRESH=2.5
X_U89         HDRV_PRE N17481751 INV_BASIC_GEN PARAMS: VDD=5 VSS=0 VTHRESH=2.5
R_R281         GND N17695164  100MEG  
R_R272         P7 RAMPR  1e11  
E_ABM75         N17672832 0 VALUE { if(V(OCEVENT)>2.5  
+ & V(OCCOUNT) <5.5 & V(SSEND) >2.5, 1,0)   }
R_R6         N17481765 COMP  4.91Meg  
X_U630         RSET SSET QSET N17481555 srlatchshp_basic_gen PARAMS:
+  VDD=5 VSS=0 VTHRESH=2.5
X_S17    N17672847 GND OCCOUNT GND TPS53313_TRANS_S17 
V_V11         N034851 SWI -.25
C_C11         SWI VINI  10p IC=0 
G_ABMII1         BP7 RTSYNC VALUE { if(V(PO) >2.5, 10u, 0)    }
X_U73         TOPON ENSS N17481723 HDRV_PRE AND3_BASIC_GEN PARAMS: VDD=5 VSS=0
+  VTHRESH=2.5
X_U13         RTSYNC BP7 d_d1 PARAMS:
R_R279         GND PENR  100MEG  
R_R274         AMPR N17927113  1e9  
X_U75         BOTON ENSS N17483252 LDRV_PRE AND3_BASIC_GEN PARAMS: VDD=5 VSS=0
+  VTHRESH=2.5
X_U1_U82         PEN U1_N02581 U1_OCS AND2_BASIC_GEN PARAMS: VDD=5 VSS=0
+  VTHRESH=2.5
E_U1_E5         U1_VOCL GND U1_VSNH GND 1
E_U1_ABM26         SKIP 0 VALUE { if(V(MODESS)> 0.4, 5, 0)    }
E_U1_ABM27         U1_N00644 0 VALUE { if(V(MODESS)< 215m & V(MODESS) > 115m |
+  V(MODESS) < 1.65 & V(MODESS) >1, 2, 0)    }
E_U1_ABM25         U1_N00602 0 VALUE { if(V(MODESS)< 115m | V(MODESS) < .83 &
+  V(MODESS) >0.5, 1, 0)    }
X_U1_U587         PEN U1_N02251 BUF_DELAY_BASIC_GEN PARAMS: VDD=5 VSS=0
+  VTHRESH=2.5 DELAY=5U
E_U1_ABM28         U1_N00664 0 VALUE { if(V(MODESS)< 400m & V(MODESS) > 250m | 
+  V(MODESS) >2, 6, 0)    }
E_U1_ABM59         SSMUL 0 VALUE { ( V(U1_N00602)  
+ +V(U1_N00644)  
+ +V(U1_N00664) )   }
X_U1_S9    U1_OCS GND U1_N00684 U1_VSNH SSMODE_U1_S9 
R_U1_R33         GND U1_VSNH  1e6  
R_U1_R274         GND MODESS  10MEG  
X_U1_U91         U1_N02251 U1_N02581 INV_BASIC_GEN PARAMS: VDD=5 VSS=0
+  VTHRESH=2.5
E_U1_ABM56         OCLIM 0 VALUE { if(V(U1_VOCL)>0.1275, 6, if(V(U1_VOCL) >50m
+  & V(U1_VOCL) < 55m, 4.5,9))    }
G_U1_ABMII3         BP3 MODESS VALUE { if(V(PEN)>2.5, 10u,0)    }
E_U1_E6         U1_N00684 GND MODESS GND 1
C_U1_C13         GND U1_VSNH  1M IC=0 TC=0,0 
X_U590         HDRV_PRE N30102 BUF_DELAY_BASIC_GEN PARAMS: VDD=5 VSS=0
+  VTHRESH=2.5 DELAY=50n
E_E1         VINBY9 GND VINI GND 0.11111
X_U189         PGOODB PGOODEN BUFFER_PS PARAMS: VHI=5 VLO=0 VTHRESH=2.5
+  TPLH=400u TPHL=10u TR=1E-9 TF=1E-9
V_V4         N17481765 GND 0.5
X_U98         DL OCLATCH OCLSD AND2_BASIC_GEN PARAMS: VDD=5 VSS=0 VTHRESH=2.5
C_C7         OCTOP GND  100p IC=0 TC=0,0 
R_R284         PGND PGND1  .0001m  
E_ABM76         OSCRAMP 0 VALUE { (V(RTMUL)   
+ * V(VINBY9) *10.25u)   }
X_S4    POR GND N17927113 AMPR TPS53313_TRANS_S4 
R_R291         PGND PGND4  .0001m  
X_U5         COMP N17596218 d_d2 PARAMS:
R_R273         GND OCLSDNB  100MEG  
R_R275         GND DL  100MEG  
X_U87         TOPON N17482270 INV_BASIC_GEN PARAMS: VDD=5 VSS=0 VTHRESH=2.5
G_ABMII6         BP7 N17672774 VALUE { if(V(OCEVENT)>2.5, .05,0)    }
X_U100         CLKRES N17921599 INV_BASIC_GEN PARAMS: VDD=5 VSS=0 VTHRESH=2.5
X_U9         BP7 VBST d_d1 PARAMS:
R_R283         GND PwPd  .0001m  
E_ABM24         N17928359 0 VALUE { if(V(RAMPF)< V(COMPi), 5,0)    }
X_U102         PEN N016390 INV_BASIC_GEN PARAMS: VDD=5 VSS=0 VTHRESH=2.5
C_C5         OCBOT GND  100p IC=0 TC=0,0 
R_R295         SWI SW2  .0001m  
G_ABM2I6         7P RAMPR VALUE { if(V(ENZC) > 2.5, V(OSCRAMP)* 0.8,
+  V(OSCRAMP))    }
X_S1    POR GND RAMPR P7 TPS53313_TRANS_S1 
R_R288         VINI VIN4  .0001m  
E_ABM23         PGOODB 0 VALUE { if(V(FB)>0.498 & V(FB)<0.702 & V(EN)>2, 5,0)  
+   }
E_U2_ABM20         VREF_GM 0 VALUE { if(V(U2_SS)>0.6, 0.6, V(U2_SS))    }
X_U2_S5    PO GND U2_SS GND VREF_U2_S5 
E_U2_ABM21         SSEND 0 VALUE { if(V(VREF_GM)>0.57, 5,0)    }
C_U2_C2         U2_SS GND  10n  TC=0,0 
G_U2_ABM2I1         BP3 U2_SS VALUE { if(V(PO)>2.5, V(SSMUL) * ({1u +
+  FASTSS*9u}),0)    }
X_U95         N17482639 N17483252 INV_BASIC_GEN PARAMS: VDD=5 VSS=0 VTHRESH=2.5
R_R287         VINI VIN3  .0001m  
R_R293         PGND PGND6  .0001m  
R_R294         SWI SW1  .0001m  
X_U81         PEN N17672610 PENR AND2_BASIC_GEN PARAMS: VDD=5 VSS=0 VTHRESH=2.5
X_S8    PGD GND PG GND TPS53313_TRANS_S8 
X_U90         N17481839 N17481723 INV_BASIC_GEN PARAMS: VDD=5 VSS=0 VTHRESH=2.5
X_U107         OCRESCOUNT PO N17672847 AND2_BASIC_GEN PARAMS: VDD=5 VSS=0
+  VTHRESH=2.5
X_S6    HDRV_PRE GND VBST HDRV TPS53313_TRANS_S6 
X_U88         QSET N17690830 INV_BASIC_GEN PARAMS: VDD=5 VSS=0 VTHRESH=2.5
R_R269         GND N17921574  100MEG  
X_U71         N17482783 OCLSD BOTON OR2_BASIC_GEN PARAMS: VDD=5 VSS=0
+  VTHRESH=2.5
R_R292         PGND PGND5  .0001m  
E_ABM4         N17836125 0 VALUE { if( V(RAMPR) > V(AMPR),  
+ 5,0)   }
E_ABM78         N17967774 0 VALUE { if(V(RCOMP) < V(ampR)* 0.8 , 5,0)    }
X_U191         N011970 N011971 BUFFER_PS PARAMS: VHI=5 VLO=0 VTHRESH=2.5
+  TPLH=1n TPHL=70n TR=1E-9 TF=1E-9
V_V13         P7 GND 0.73
X_U77         QSET PO OCLBAR NOOCTOP AND3_BASIC_GEN PARAMS: VDD=5 VSS=0
+  VTHRESH=2.5
R_R49         GND N17672711  1e8  
C_C6         RTSAM GND  10p IC=0 TC=0,0 
C_C13         GND COMPSH  10n  
E_ABM7         OCT 0 VALUE { if( V(OCTOP) > V(OCLIM) * 20m & V(PO)> 2.5,  
+ 5,0)   }
G_ABM2I5         N17481765 COMP VALUE { if(V(Pen)>2.5,LIMIT(((V(VREF_GM) -
+  V(FB))*20m), -1m, 1m),0)    }
.ends
*$
.subckt TPS53313_TRANS_S16 1 2 3 4  
S_S16         3 4 1 2 _S16
RS_S16         1 2 1G
.MODEL         _S16 VSWITCH Roff=1e9 Ron=1m Voff=2.6 Von=2.4
.ends TPS53313_TRANS_S16
*$
.subckt ZC_U5_S15 1 2 3 4  
S_U5_S15         3 4 1 2 _U5_S15
RS_U5_S15         1 2 1G
.MODEL         _U5_S15 VSWITCH Roff=1e11 Ron=10m Voff=0.0V Von=1.0V
.ends ZC_U5_S15
*$
.subckt ZC_U5_S8 1 2 3 4  
S_U5_S8         3 4 1 2 _U5_S8
RS_U5_S8         1 2 1G
.MODEL         _U5_S8 VSWITCH Roff=1e11 Ron=1.0m Voff=2.25 Von=2.75
.ends ZC_U5_S8
*$
.subckt TPS53313_TRANS_S19 1 2 3 4  
S_S19         3 4 1 2 _S19
RS_S19         1 2 1G
.MODEL         _S19 VSWITCH Roff=1e9 Ron=1m Voff=2.6 Von=2.4
.ends TPS53313_TRANS_S19
*$
.subckt TPS53313_TRANS_S2 1 2 3 4  
S_S2         3 4 1 2 _S2
RS_S2         1 2 1G
.MODEL         _S2 VSWITCH Roff=1e11 Ron=1m Voff=2 Von=3
.ends TPS53313_TRANS_S2
*$
.subckt TPS53313_TRANS_S18 1 2 3 4  
S_S18         3 4 1 2 _S18
RS_S18         1 2 1G
.MODEL         _S18 VSWITCH Roff=1e11 Ron=10m Voff=0.0V Von=1.0V
.ends TPS53313_TRANS_S18
*$
.subckt OVUVP_U3_S12 1 2 3 4  
S_U3_S12         3 4 1 2 _U3_S12
RS_U3_S12         1 2 1G
.MODEL         _U3_S12 VSWITCH Roff=1e11 Ron=60 Voff=2.4 Von=2.6
.ends OVUVP_U3_S12
*$
.subckt TPS53313_TRANS_S3 1 2 3 4  
S_S3         3 4 1 2 _S3
RS_S3         1 2 1G
.MODEL         _S3 VSWITCH Roff=1e9 Ron=1m Voff=2.4 Von=2.6
.ends TPS53313_TRANS_S3
*$
.subckt TPS53313_TRANS_S7 1 2 3 4  
S_S7         3 4 1 2 _S7
RS_S7         1 2 1G
.MODEL         _S7 VSWITCH Roff=1e11 Ron=2 Voff=2.4 Von=2.6
.ends TPS53313_TRANS_S7
*$
.subckt TPS53313_TRANS_S36 1 2 3 4  
S_S36         3 4 1 2 _S36
RS_S36         1 2 1G
.MODEL         _S36 VSWITCH Roff=1e8 Ron=20m Voff=2.4V Von=2.6
.ends TPS53313_TRANS_S36
*$
.subckt TPS53313_TRANS_S11 1 2 3 4  
S_S11         3 4 1 2 _S11
RS_S11         1 2 1G
.MODEL         _S11 VSWITCH Roff=1e11 Ron=2 Voff=2.4 Von=2.6
.ends TPS53313_TRANS_S11
*$
.subckt TPS53313_TRANS_S10 1 2 3 4  
S_S10         3 4 1 2 _S10
RS_S10         1 2 1G
.MODEL         _S10 VSWITCH Roff=1e11 Ron=2 Voff=2.4 Von=2.6
.ends TPS53313_TRANS_S10
*$
.subckt TPS53313_TRANS_S37 1 2 3 4  
S_S37         3 4 1 2 _S37
RS_S37         1 2 1G
.MODEL         _S37 VSWITCH Roff=1e8 Ron=20m Voff=2.4 Von=2.6
.ends TPS53313_TRANS_S37
*$
.subckt TPS53313_TRANS_S17 1 2 3 4  
S_S17         3 4 1 2 _S17
RS_S17         1 2 1G
.MODEL         _S17 VSWITCH Roff=1e11 Ron=1.0m Voff=2.25 Von=2.75
.ends TPS53313_TRANS_S17
*$
.subckt SSMODE_U1_S9 1 2 3 4  
S_U1_S9         3 4 1 2 _U1_S9
RS_U1_S9         1 2 1G
.MODEL         _U1_S9 VSWITCH Roff=1e11 Ron=1.0e-8 Voff=2.5 Von=2.6
.ends SSMODE_U1_S9
*$
.subckt TPS53313_TRANS_S4 1 2 3 4  
S_S4         3 4 1 2 _S4
RS_S4         1 2 1G
.MODEL         _S4 VSWITCH Roff=1e9 Ron=1m Voff=2 Von=3
.ends TPS53313_TRANS_S4
*$
.subckt TPS53313_TRANS_S1 1 2 3 4  
S_S1         3 4 1 2 _S1
RS_S1         1 2 1G
.MODEL         _S1 VSWITCH Roff=1e11 Ron=1m Voff=2 Von=3
.ends TPS53313_TRANS_S1
*$
.subckt VREF_U2_S5 1 2 3 4  
S_U2_S5         3 4 1 2 _U2_S5
RS_U2_S5         1 2 1G
.MODEL         _U2_S5 VSWITCH Roff=1e8 Ron=10 Voff=3 Von=2
.ends VREF_U2_S5

.subckt TPS53313_TRANS_S8 1 2 3 4  
S_S8         3 4 1 2 _S8
RS_S8         1 2 1G
.MODEL         _S8 VSWITCH Roff=1e8 Ron=10 Voff=2 Von=3
.ends TPS53313_TRANS_S8

.subckt TPS53313_TRANS_S6 1 2 3 4  
S_S6         3 4 1 2 _S6
RS_S6         1 2 1G
.MODEL         _S6 VSWITCH Roff=1e11 Ron=2 Voff=2.4 Von=2.6
.ends TPS53313_TRANS_S6
*$
.SUBCKT AND2_BASIC_GEN A B Y PARAMS: VDD=5 VSS=0 VTHRESH=2.5 
E_ABMGATE    YINT 0 VALUE {{IF(V(A) > {VTHRESH}  &  
+ V(B) > {VTHRESH},{VDD},{VSS})}}
RINT YINT Y 1
CINT Y 0 1n
.ENDS AND2_BASIC_GEN
*$
.SUBCKT AND3_BASIC_GEN A B C Y PARAMS: VDD=5 VSS=0 VTHRESH=2.5 
E_ABMGATE    YINT 0 VALUE {{IF(V(A) > {VTHRESH}  &  
+ V(B) > {VTHRESH} &
+ V(C) > {VTHRESH},{VDD},{VSS})}}
RINT YINT Y 1
CINT Y 0 1n
.ENDS AND3_BASIC_GEN
*$
.SUBCKT OR2_BASIC_GEN A B Y PARAMS: VDD=1 VSS=0 VTHRESH=0.5 
E_ABMGATE    YINT 0 VALUE {{IF(V(A) > {VTHRESH}  |  
+ V(B) > {VTHRESH},{VDD},{VSS})}}
RINT YINT Y 1
CINT Y 0 1n
.ENDS OR2_BASIC_GEN
*$
.SUBCKT NAND2_BASIC_GEN A B Y PARAMS: VDD=5 VSS=0 VTHRESH=2.5 
E_ABMGATE    YINT 0 VALUE {{IF(V(A) > {VTHRESH}  &  
+ V(B) > {VTHRESH},{VSS},{VDD})}}
RINT YINT Y 1
CINT Y 0 1n
.ENDS NAND2_BASIC_GEN
*$
.SUBCKT INV_BASIC_GEN A  Y PARAMS: VDD=5 VSS=0 VTHRESH=2.5 
E_ABMGATE    YINT 0 VALUE {{IF(V(A) > {VTHRESH} , 
+ {VSS},{VDD})}}
RINT YINT Y 1
CINT Y 0 1n
.ENDS INV_BASIC_GEN
*$
.SUBCKT INV_DELAY_BASIC_GEN A  Y PARAMS: VDD=5 VSS=0
+ VTHRESH=2.5 DELAY = 10n 
E_ABMGATE1    YINT1 0 VALUE {{IF(V(A) > {VTHRESH} , 
+ {VDD},{VSS})}}
RINT YINT1 YINT2 1
CINT YINT2 0 {DELAY*1.3}
E_ABMGATE2    YINT3 0 VALUE {{IF(V(YINT2) > {VTHRESH} , 
+ {VSS},{VDD})}}
RINT2 YINT3 Y 1
CINT2 Y 0 1n
.ENDS INV_DELAY_BASIC_GEN
*$
.SUBCKT BUF_DELAY_BASIC_GEN A  Y PARAMS: VDD=5 VSS=0 VTHRESH=2.5
+ DELAY = 10n 
E_ABMGATE1    YINT1 0 VALUE {{IF(V(A) > {VTHRESH} , 
+ {VDD},{VSS})}}
RINT YINT1 YINT2 1
CINT YINT2 0 {DELAY*1.3}
E_ABMGATE2    YINT3 0 VALUE {{IF(V(YINT2) > {VTHRESH} , 
+ {VDD},{VSS})}}
RINT2 YINT3 Y 1
CINT2 Y 0 1n
.ENDS BUF_DELAY_BASIC_GEN
*$
.SUBCKT BUF_BASIC_GEN A  Y PARAMS: VDD=5 VSS=0 VTHRESH=2.5 
E_ABMGATE    YINT 0 VALUE {{IF(V(A) > {VTHRESH} , 
+ {VDD},{VSS})}}
RINT YINT Y 1
CINT Y 0 1n
.ENDS BUF_BASIC_GEN
*$
.SUBCKT SRLATCHSHP_BASIC_GEN S R Q QB PARAMS: VDD=5 VSS=0 VTHRESH=2.5 
Rs S 0 1e11
Rr R 0 1e11
GQ 0 Qint VALUE = {IF(V(S) > {VTHRESH},5,IF(V(R)>{VTHRESH},-5, 0))}
CQint Qint 0 1n
RQint Qint 0 1000MEG
D_D10 Qint MY5 D_D1
V1 MY5 0 {VDD}
D_D11 MYVSS Qint D_D1
V2 MYVSS 0 {VSS} 
EQ Qqq 0 Qint 0 1
X3 Qqq Qqqd1 BUF_BASIC_GEN PARAMS: VDD={VDD} VSS={VSS} VTHRESH={VTHRESH}
RQq Qqqd1 Q 1
EQb Qbr 0 VALUE = {IF( V(Q) > {VTHRESH}, {VSS},{VDD})}
RQb Qbr QB 1 
Cdummy1 Q 0 1n 
Cdummy2 QB 0 1n 
.IC V(Qint) {VSS}
.MODEL D_D1 D( IS=1e-15 TT=10p Rs=0.05 N=.1  )
.ENDS SRLATCHSHP_BASIC_GEN
*$
.SUBCKT SRLATCHRHP_BASIC_GEN S R Q QB PARAMS: VDD=5 VSS=0 VTHRESH=2.5 
Rs S 0 1e11
Rr R 0 1e11
GQ 0 Qint VALUE = {IF(V(R) > {VTHRESH},-5,IF(V(S)>{VTHRESH},5, 0))}
CQint Qint 0 1n
RQint Qint 0 1000MEG
D_D10 Qint MY5 D_D1
V1 MY5 0 {VDD}
D_D11 MYVSS Qint D_D1
V2 MYVSS 0 {VSS} 
EQ Qqq 0 Qint 0 1
X3 Qqq Qqqd1 BUF_BASIC_GEN PARAMS: VDD={VDD} VSS={VSS} VTHRESH={VTHRESH}
RQq Qqqd1 Q 1
EQb Qbr 0 VALUE = {IF( V(Q) > {VTHRESH}, {VSS},{VDD})}
RQb Qbr QB 1 
Cdummy1 Q 0 1n 
Cdummy2 QB 0 1n
.IC V(Qint) {VSS}
.MODEL D_D1 D( IS=1e-15 TT=10p Rs=0.05 N=.1  )
.ENDS SRLATCHRHP_BASIC_GEN
*$
.SUBCKT COMP_BASIC_GEN INP INM Y PARAMS: VDD=5 VSS=0 VTHRESH=2.5 	
E_ABM Yint 0 VALUE {IF (V(INP) > 
+ V(INM), {VDD},{VSS})}
R1 Yint Y 1
C1 Y 0 1n
.ENDS COMP_BASIC_GEN
*$
.SUBCKT D_D1 1 2
D1 1 2 DD1
.MODEL DD1 D( IS=1e-15 TT=10p Rs=0.05 N=.1  )
.ENDS D_D1
*$
.SUBCKT D_D2 1 2
D1 1 2 DD2
.MODEL DD2 D( IS=1e-15 TT=10p Rs=0.01 N=.01  )
.ENDS D_D2
*$
.subckt d_d 1 2
d1 1 2 dd
.model dd d
+ is=1e-015
+ n=0.01
+ tt=1e-011
.ends d_d
*$
.SUBCKT MONOPOS_PS in Q Qn PARAMS: PW=250u 
VS VSUP 0 DC 5
r1 IN 0 1e11
GIN VSUP YA VALUE={IF(V(IN)>2.5, V(VSUP)/1000K, 0)}
GDIS YA 0 VALUE={IF(V(IN)>2.5,0, V(YA)/1m)}
CIN YA 0 1n IC=0
RIN YA 0 1e11
EABM1 YTD 0 VALUE={IF(V(YA)> {PW*1000}, 5, 0)}
RYTD YTD 0 1e11
EXOR P 0 VALUE={IF(V(YTD) > 2.5 ^ V(IN) > 2.5, 5, 0)}
ROUTpp2 P 0 1e11
EAND1 Q1 0 VALUE={ IF(V(P)>2.5 & V(IN)>2.5, 5, 0)}
Ro1 Q1 Q 1m
Co1 Q 0 1p
ROUT2 Q 0 1e11
EAND2 Qn1 0 VALUE={ IF(V(Q)>2.5, 0, 5)}
Ro2 Qn1 Qn 1m
Co2 Qn 0 1p
ROUT4 Qn 0 1e11
.ENDS MONOPOS_PS
*$
.SUBCKT MONONEG_PS in Q Qn PARAMS: PW=250u 
VS VSUP 0 DC 1
r1 IN 0 1e11
RS VSUP 0 1e11
GIN VSUP YA VALUE={IF(V(IN)<2.5, V(VSUP)/1000K, 0)}
GDIS YA 0 VALUE={IF(V(IN)<2.5,0, V(YA)/1m)}
CIN YA 0 1n IC=1
RIN YA 0 1e11
EABM1 YTD 0 VALUE={IF(V(YA)> {PW*1000}, 0, 5)}
RYTD YTD 0 1e11
EXOR P 0 VALUE={IF(V(YTD) > 2.5 ^ V(IN) > 2.5, 5, 0)}
ROUTpp2 P 0 1e11
EAND1 Q1 0 VALUE={ IF(V(P)>2.5 & V(YTD)>2.5, 5, 0)}
Ro1 Q1 Q 1m
Co1 Q 0 1p IC=0
ROUT2 Q 0 1e11
EAND2 Qn1 0 VALUE={ IF(V(Q)>0.5, 0, 5)}
Ro2 Qn1 Qn 1m
Co2 Qn 0 1p
ROUT4 Qn 0 1e11
.ENDS MONONEG_PS
*$
.SUBCKT BUFFER_PS A Y PARAMS: vhi=1 vlo=0 vthresh=500e-3
+ tplh=1e-9 tphl=1e-9 tr=1e-9 tf=1e-9
RA A 0 1e11
CA A 0 0.01pF
VS VSUP 0 DC 1
EBUF1 Ypp 0 VALUE={IF(V(A) > ({vthresh}), 1, 0)}
ROUTpp Ypp 0 1e11
XNSW1 OUTp Ypp 0 NSW_PS PARAMS: RONval={(tplh+1e-15)/(1e-12*0.693)} VTHval=0.5
XPSW1 OUTp Ypp VSUP PSW_PS PARAMS: RONval={(tphl+1e-15)/(1e-12*0.693)} VTHval=0.5
CDEL1 OUTp 0 1pF
ETHRESH Yp 0 VALUE={IF(V(OUTp) > 0.5, 1, 0)}
ROUTp Yp 0 1e11
XNSW2 OUTr Yp 0 NSW_PS PARAMS: RONval={(tf+1e-15)/(1e-12*2.3)} VTHval=0.5
XPSW2 OUTr Yp VSUP PSW_PS PARAMS: RONval={(tr+1e-15)/(1e-12*2.3)} VTHval=0.5
CDEL2 OUTr 0 1pF
EOUT OUTf 0 VALUE={V(OUTr)*({vhi} - {vlo})+{vlo}}
RDR OUTf Y  1000
RO Y 0 1e11
.ENDS BUFFER_PS
*$
.SUBCKT INV_PS Y A PARAMS: vhi=1 vlo=0 vthresh=500e-3
+ tplh=1e-9 tphl=1e-9 tr=1e-9 tf=1e-9
RA A 0 1e11
CA A 0 0.01pF
VS VSUP 0 DC 1
***** boolean ************
EINV1 Ypp 0 VALUE={IF(V(A) > ({vthresh}), 0, 1)}
ROUTpp Ypp 0 1e11
***** add delay lines ****
XNSW1 OUTp Ypp 0 NSW_PS PARAMS: RONval={(tplh+1e-15)/(1e-12*0.693)}
+ VTHval=0.5
XPSW1 OUTp Ypp VSUP PSW_PS PARAMS: RONval={(tphl+1e-15)/(1e-12*0.693)}
+ VTHval=0.5
CDEL1 OUTp 0 1pF
ETHRESH Yp 0 VALUE={IF(V(OUTp) > 0.5, 1, 0)}
ROUTp Yp 0 1e11
** add rise and fall *****
XNSW2 OUTr Yp 0 NSW_PS PARAMS: RONval={(tf+1e-15)/(1e-12*2.3)} VTHval=0.5
XPSW2 OUTr Yp VSUP PSW_PS PARAMS: RONval={(tr+1e-15)/(1e-12*2.3)} VTHval=0.5
CDEL2 OUTr 0 1pF
**************************
EOUT OUTf 0 VALUE={V(OUTr)*({vhi} - {vlo})+{vlo}}
RDR OUTf Y  100
RO Y 0 1e11
.ENDS INV_PS
*$
.SUBCKT NSW_PS D G S PARAMS: RONval=10k VTHval=0.7 VCHARval=0.01
+ CGval=0.01pF CDval=0.01pF 
RDDUM D 0 1e11
RSDUM S 0 1e11
RGDUM G 0 1e11
CG G D {CGval}
CD D S {CDval}
EEXP F1 0 VALUE={LIMIT(((V(G,S)-VTHval)/VCHARval),-80,80)} 
GOUT D S VALUE={V(D,S)/(RONval*(1+EXP(-LIMIT(((V(G,S)-VTHval)/VCHARval),-80,80))))}
.ENDS NSW_PS
*$
.SUBCKT PSW_PS D G S PARAMS: RONval=10k VTHval=0.7 VCHARval=0.01
+ CGval=0.01pF CDval=0.01pF 
RDDUM D 0 1e11
RSDUM S 0 1e11
RGDUM G 0 1e11
CG G D {CGval}
CD D S {CDval}
EEXP F1 0 VALUE={LIMIT(((V(S,G)-VTHval)/VCHARval),-80,80)} 
GOUT S D VALUE={V(S,D)/(RONval*(1+EXP(-LIMIT(((V(S,G)-VTHval)/VCHARval),-80,80))))}
.ENDS PSW_PS
*$
.SUBCKT CESR IN OUT
+ PARAMs:  C=100u ESR=0.01 X=2 IC=0
C	IN 1  {C*X} IC={IC}
RESR	1 OUT {ESR/X}
.ENDS CESR
*$
.SUBCKT LDCR IN OUT
+ PARAMs:  L=1u DCR=0.01 IC=0
L	IN 1  {L} IC={IC}
RDCR	1 OUT {DCR}
.ENDS LDCR
*$
