* PSpice Model Editor - Version 16.0.0
*$
* TPS51125
*****************************************************************************
*  (C) Copyright 2010 Texas Instruments Incorporated. All rights reserved.
*****************************************************************************
** This model is designed as an aid for customers of Texas Instruments.
** TI and its licensors and suppliers make no warrenties, either expressed
** or implied, with respect to this model, including the warranties of 
** merchantability or fitness for a particular purpose.  The model is
** provided solely on an "as is" basis.  The entire risk as to its quality
** and performance is with the customer
*****************************************************************************
*
** Released by: Analog eLab Design Center, Texas Instruments Inc.
* Part: TPS51125
* Date: 22DEC2010
* Model Type: TRANSIENT
* Simulator: PSPICE
* Simulator Version: 16.0.0.p001
* EVM Order Number: TPS511125EVM - HPA312A
* EVM Users Guide: SLUU311- APRIL 2008
* Datasheet: SLUS786C–REVISED MARCH 2009
*
* Model Version: Final 2.00
*
*****************************************************************************
*
* Updates: changed EN0 current to enable with resistor.
*
* Final 2.00
* Release to Web.
*
*****************************************************************************
.SUBCKT TPS51125 VREF VREG3 VREG5 VBST1 VBST2 VCLK ENTRIP1 ENTRIP2 SKIPSEL
+ LL1 LL2 PGOOD VIN VO1 VO2 VFB1 VFB2 DRVH1 DRVH2 DRVL1 DRVL2
+ EN0 TONSEL GND PARAMS: MODE=1 PGDEL=0.01
I_U3_I1         U3_V5FILT EN0 DC 2.5u
I_U2_I1         U2_V5FILT EN0 DC 2.5u  
X_U1_U220         U1_N13853999 SSEND2 INVERTER
E_U1_ABM52         U1_N13742767 0 VALUE { if( V(U1_SSEND)> 0.5 &  
+ V(U1_QEN1)>0.5,1,0)   }
E_U1_ABM48         U1_N13786165 0 VALUE { if( V(U1_ENCH2SS)> 0.5 |  
+ V(U1_ENCH1SS)>0.5,1,0)   }
E_U1_ABM37         U1_ENABLE1 0 VALUE { if( V(EN0)>0.5 &  
+ V(U1_V5INOK)> 0.5 &  
+ V(ENTRIP1)>0.43,1,0)  }
R_U1_R17         GND U1_N13702769  1Meg  
R_U1_R29         GND U1_N13635549  1e8 TC=0,0 
G_U1_G2         U1_V5FILT U1_SS U1_N13787370 GND {1.25u + MODE*6.25u}
R_U1_R32         GND U1_N13790853  1e8 TC=0,0 
R_U1_R19         GND U1_N13702763  1Meg  
R_U1_R18         VREG5 U1_V5FILT  3.32  
E_U1_ABM40         U1_EN2ASSERTED 0 VALUE { if( V(U1_N13635515)> 0.5 &  
+ V(U1_ENABLE1)<0.5,1,0)   }
X_U1_U9         U1_N13786165 U1_N13786209 delay PARAMS: T=6000
R_U1_R33         GND U1_N137909832  1e8 TC=0,0 
E_U1_ABM36         U1_VREF 0 VALUE { if( V(U1_ENABLE1)> 0.5 |  
+ V(U1_ENABLE2)>0.5,1,0)   }
C_U1_C11         GND U1_V5FILT  1u IC=0 
X_U1_U11         U1_ENCH1SS U1_N13840943 delay PARAMS: T=200000
X_U1_U48         U1_SETEN1 U1_N13643834 U1_QEN1 U1_N13643842
+  srnandlatchshp_basic PARAMS:
C_U1_C3         GND U1_SS  1n IC=0 TC=0,0 
X_U1_U306         U1_N13786209 U1_RESETSS U1_N13786303 MONOPOS_PS PARAMS:
+  PW=300u
E_U1_ABM41         U1_SETEN1 0 VALUE { if( V(U1_EN1ASSERTED)> 0.5 |  
+ V(U1_SSOVERLAP)>0.5,1,0)   }
X_U1_U250         U1_N13790849 U1_N13790853 U1_SSOVERLAP AND
E_U1_ABM2         U1_SSEND 0 VALUE { if(V(U1_SS)>2, 1,0)    }
E_U1_ABM44         U1_N13755533 0 VALUE { LIMIT(if( V(U1_QEN2)>0.5,  
+ V(U1_SS),  
+ if(V(U1_N13761577)>0.5, V(U1_SS),0)),0,2)  }
E_U1_ABM54         U1_N13819826 0 VALUE { if( V(U1_SSEND)> 0.5 &  
+ V(U1_QEN2)>0.5,1,0)   }
X_U1_U15          VREG5 U1_V5INOK COMP_HYS2 PARAMS:  TH=4.05 HYS=.3
R_U1_R11         GND U1_N13643842  1Meg  
R_U1_R34         U1_N13786271 U1_RESETSS  1e8 TC=0,0 
R_U1_R26         GND U1_N13479000  1e8 TC=0,0 
E_U1_ABM38         U1_ENABLE2 0 VALUE { if( V(EN0)>0.5 &  
+ V(U1_V5INOK)> 0.5 &  
+ V(ENTRIP2)>0.43,1,0)  }
R_U1_R14         GND U1_N13643834  1Meg  
X_U1_U302         U1_ENABLE1 U1_N13479000 U1_N13479034
+ MONOPOS_PS PARAMS: PW=1u
X_U1_U49         U1_SETEN2 U1_N13802218 U1_QEN2 U1_N13646777
+  srnandlatchshp_basic PARAMS:
E_U1_ABM49         VSS1 0 VALUE { if( V(U1_SET1S)> 0.5 , 2,  
+ V(U1_N13645523))   }
X_U1_U304         U1_ENABLE1 U1_N13790849 U1_N137908792
+ MONOPOS_PS PARAMS:
+  PW=60u
X_U1_U221         U1_N13854525 SSEND1 INVERTER
X_U1_U51         U1_N13819826 U1_N137535291 U1_SET2S U1_N137535293
+  srnandlatchshp_basic PARAMS:
R_U1_R22         GND U1_SSEND  1Meg  
R_U1_R13         GND U1_N13802218  1Meg  
R_U1_R35         U1_N13786271 U1_N13786303  1e8 TC=0,0 
E_U1_ABM51         U1_N13838872 0 VALUE { if( V(U1_SET1S)> 0.5 |  
+ V(U1_QEN2)>0.5,1,0)   }
R_U1_R27         GND U1_N13479034  1e8 TC=0,0 
E_U1_ABM59         ENCIRD2 0 VALUE { if( V(U1_N13851673)> 0.5 &  
+ V(U1_N13838872)>0.5,1,0)   }
X_U1_U207         U1_SS U1_V5FILT DIDEAL_PS PARAMS: RON=1E-3 ROFF=1E9
E_U1_ABM57         U1_N13853999 0 VALUE { if(V(VSS2)<1.99, 1,0)    }
E_U1_ABM56         U1_N13854525 0 VALUE { if(V(VSS1)<1.99, 1,0)    }
R_U1_R12         GND U1_N13646777  1Meg  
R_U1_R30         GND U1_N13790849  1e8 TC=0,0 
E_U1_ABM39         U1_EN1ASSERTED 0 VALUE { if( V(U1_N13479000)> 0.5 &  
+ V(U1_ENABLE2)<0.5,1,0)   }
X_U1_U219         U1_N13787370 U1_N137873121 INVERTER
X_U1_U303         U1_ENABLE2 U1_N13635515 U1_N13635549
+ MONOPOS_PS PARAMS: PW=1u
E_U1_ABM46         U1_ENCH2SS 0 VALUE { if( V(U1_SET1S)>0.5 &  
+ V(U1_ENABLE2)>0.5,1,0)   }
R_U1_R20         GND U1_N137535293  1Meg  
X_U1_U8         U1_VREF U1_ENCIRD delay PARAMS: PARAMS: T=60000
E_U1_ABM58         ENCIRD1 0 VALUE { if( V(U1_N13850258)> 0.5 &  
+ V(U1_N13838099)>0.5,1,0)   }
E_U1_ABM43         U1_SETEN2 0 VALUE { if( V(U1_EN2ASSERTED)> 0.5 |  
+ V(U1_SSOVERLAP)>0.5,1,0)   }
E_U1_ABM55         VSS2 0 VALUE { if( V(U1_SET2S)> 0.5 , 2,  
+ V(U1_N13755533))   }
E_U1_ABM61         U1_N13851673 0 VALUE { if( V(U1_ENCIRD)> 0.5 &  
+ V(U1_ENABLE2)>0.5,1,0)   }
R_U1_R31         GND U1_N137908792  1e8 TC=0,0 
X_U1_U50         U1_N13742767 U1_N13702763 U1_SET1S U1_N13702769
+  srnandlatchshp_basic PARAMS:
X_U1_S11    U1_N137873121 GND U1_SS GND SS_SEL_U1_S11 
E_U1_ABM45         U1_N13838099 0 VALUE { if( V(U1_SET2S)> 0.5 |  
+ V(U1_QEN1)>0.5,1,0)   }
R_U1_R21         GND U1_N137535291  1Meg  
E_U1_ABM47         U1_ENCH1SS 0 VALUE { if( V(U1_SET2S)> 0.5&  
+ V(U1_ENABLE1)>0.5,1,0)   }
E_U1_ABM60         U1_N13850258 0 VALUE { if( V(U1_ENCIRD)> 0.5 &  
+ V(U1_ENABLE1)>0.5,1,0)   }
E_U1_ABM50         U1_N13787370 0 VALUE { if( V(U1_ENCIRD)> 0.5 &  
+ V(U1_RESETSS)<0.5,1,0)   }
E_U1_ABM42         U1_N13645523 0 VALUE { LIMIT(if( V(U1_QEN1)>0.5,  
+ V(U1_SS),  
+ if(V(U1_N13840943)>0.5, V(U1_SS),0)),0,2)  }
R_U1_R28         GND U1_N13635515  1e8 TC=0,0 
X_U1_U305         U1_ENABLE2 U1_N13790853 U1_N137909832
+ MONOPOS_PS PARAMS:
+  PW=60u
X_U1_U10         U1_ENCH2SS U1_N13761577 delay PARAMS: T=200000
X_U_U19         VREG3 U_N10600939 VIN PMOSIDEAL_PS PARAMS: K=.3 VTH=1
V_U_V7         U_N10596726 GND 4.7
X_U_S10    EN0 GND VREF GND LDOs_U_S10 
X_U_U14         VREF U_N10597008 VIN PMOSIDEAL_PS PARAMS: K=.1 VTH=1
R_U_R29         U_N10596400 VREG5  750k TC=0,0 
V_U_V8         U_N10596574 GND .2
V_U_V11         U_N10609146 GND  
+PULSE 5 0 0 1n 1n 1.85u 3.7u
E_U_ABM65         U_N10600939 0 VALUE { if( V(U_ENLDO3)>0.5,  
+ V(U_N10600895),  
+ V(VIN) )  }
E_U_ABM69         VCLK 0 VALUE { if( V(EN0) > 2.4,  
+ V(U_N10609146) ,0)   }
R_U_R30         GND U_N10596400  250K TC=0,0 
X_U_U8         VO2 U_N10600679 U_N10600527 U_VOREADY3 COMP_HYS
E_U_ABM61         U_ENVO 0 VALUE { IF( V(EN0)>0.5  
+ ,V(U_VOREADY),0)   }
X_U_U21         VREG5 VIN DIDEAL_PS PARAMS: RON=1E-3 ROFF=1E9
R_U_R8         U_N10597060 VREF  150k TC=0,0 
E_U_ABM63         U_ENLDO3 0 VALUE { IF( V(U_ENV3IN)<0.5  
+ & V(EN0)>0.5 ,1,0)   }
X_U_U16         U_ENVO U_ENV5IN delay PARAMS: PARAMS: T=1E4
X_U_U28         U_N10597374 VIN U_N10597060 U_VR
+ VCVSCLIP_PS PARAMS: GAIN=5000
+  VOMAX=1 VOMIN=-2
E_U_ABM32         U_VR 0 VALUE { if(V(VIN) > 4, 1.25,0)    }
V_U_V9         U_N10600679 GND 3.1
R_U_R16         GND U_N10597060  250K TC=0,0 
R_U_R31         U_N10600367 VREG3  410k TC=0,0 
R_U_R32         GND VCLK  10Meg TC=0,0 
V_U_V10         U_N10600527 GND .2
X_U_S9    U_ENV5IN GND VREG5 VO1 LDOs_U_S9 
X_U_U27         U_N10596942 VIN U_N10596400 U_VR
+ VCVSCLIP_PS PARAMS: GAIN=5000
+  VOMAX=1 VOMIN=-2
E_U_ABM68         U_N10597008 0 VALUE { if( V(EN0)>0.5,  
+ V(U_N10597374),  
+ V(VIN) )  }
X_U_U18         VREG5 U_N10596986 VIN PMOSIDEAL_PS PARAMS: K=0.5 VTH=1
E_U_ABM64         U_ENVO3 0 VALUE { IF( V(EN0)>0.5  
+ ,V(U_VOREADY3),0)   }
X_U_U22         VREG3 VIN DIDEAL_PS PARAMS: RON=1E-3 ROFF=1E9
X_U_U17         U_ENVO3 U_ENV3IN delay PARAMS: T=1E4
E_U_ABM62         U_N10596986 0 VALUE { if( V(U_ENLDO5)>0.5,  
+ V(U_N10596942),  
+ V(VIN) )  }
R_U_R34         GND EN0  10Meg TC=0,0 
X_U_U7         VO1 U_N10596726 U_N10596574 U_VOREADY COMP_HYS
R_U_R33         GND U_N10600367  250K TC=0,0 
E_U_ABM60         U_ENLDO5 0 VALUE { IF( V(U_ENV5IN)<0.5  
+ & V(EN0)>0.5 ,1,0)   }
X_U_S11    U_ENV3IN GND VREG3 VO2 LDOs_U_S11 
X_U_U29         U_N10600895 VIN U_N10600367 U_VR
+ VCVSCLIP_PS PARAMS: GAIN=5000
+  VOMAX=1 VOMIN=-2
R_U3_R20         GND SKIPSEL  1e11 TC=0,0 
R_U3_R4         GND U3_OOAPULSE  1Meg TC=0,0 
E_U3_ABM39   U3_N13422351 0 VALUE { if(V(SKIPSEL) >4.8 & V(SKIPSEL) <5.2
+  &  
+ V(U3_V5INOK) >0.5,1,0)   }
R_U3_R6         GND U3_PWMMODE  1Meg TC=0,0 
E_U3_ABM50         U3_N13413892 0 VALUE { ( V(U3_N13413872)  
+ +V(U3_N13413882) )    }
E_U3_ABM55         U3_NODEA 0 VALUE { LIMIT(V(U3_OOAGAIN) *  
+ V(U3_VSEL), 0.3,6)   }
X_U3_U261         U3_N8024952 U3_N8024896 U3_N8024896 U3_ENLOW2 NAND3_PS
+  PARAMS: VHI=1 VLO=0 VTHRESH=500E-3 TPLH=1E-9 TPHL=1E-9 TR=1E-9 TF=1E-9
E_U3_ABM27         U3_VOUT_TON 0 VALUE { if( V(U3_VSEL)  
+ >V(U3_NODEA) ,V(U3_NODEA),V(U3_VSEL))   }
X_U3_U242         U3_BLNKM U3_N8028554 U3_OCLDIS OR
E_U3_ABM45         U3_N13635534 0 VALUE { if(V(U3_HIDRIVE) < 0.5 &  
+ V(U3_LOWDRIVE) <0.5,1,0)   }
X_U3_U35         U3_OV U3_OVD delay PARAMS: PARAMS: T=5000
E_U3_ABM9         U3_LLO 0 VALUE { if( V(U3_N8029632)>0.5,  
+ V(LL1),  
+ V(GND) )  }
E_U3_E7         U3_RMPIN GND U3_RMP GND 6.667m
C_U3_C13         GND U3_OOATIME  4p IC=0 TC=0,0 
X_U3_U243         U3_BLNKM U3_N8028596 U3_N8024896 OR
C_U3_C12         GND U3_N8025596  100p IC=0 
X_U3_U15          VREG5 U3_V5INOK COMP_HYS2 PARAMS:  TH=4.2 HYS=.3
E_U3_ABM7         U3_ENHI_TOGG 0 VALUE { if(V(U3_SPIKE) > .5, 1,0)    }
X_U3_S7    U3_DRL2 GND DRVL1 GND DCAP_ch1_U3_S7 
E_U3_ABM52         U3_TSEL 0 VALUE { ( V(U3_N13413902)  
+ +V(U3_N13413892) )    }
X_U3_U290         U3_N8029540 U3_N82894701 INVERTER
X_U3_U300         U3_N82980261 U3_DRL1 INVERTER
E_U3_ABM40         U3_OOA 0 VALUE { if(V(U3_N13422343) >0.5 |  
+ V(U3_N13422351) >0.5,1,0)   }
X_U3_U284         U3_LOWDRIVE U3_N8028504 U3_N8031494 AND
X_U3_U296         U3_BLNKM U3_TBLNKB U3_N8031784 NAND2_PS
+ PARAMS: VHI=1 VLO=0
+  VTHRESH=500E-3 TPLH=1E-9 TPHL=1E-9 TR=1E-9 TF=1E-9
X_U3_U260         U3_N8028908 U3_N8028968 U3_TBLNKB ENCIRD1
+ NAND3_PS PARAMS:
+  VHI=1 VLO=0 VTHRESH=500E-3 TPLH=1E-9 TPHL=1E-9 TR=1E-9 TF=1E-9
G_U3_ABMII3         U3_V5FILT U3_ZCTHRESH VALUE { if(V(U3_NODEA) < 0.01,
+  10u*(V(U3_NODEA)-0.01),0)    }
E_U3_ABM5         U3_P675VREF 0 VALUE { V(U3_V2P0) * 0.75    }
X_U3_U289         U3_N8029540 U3_N8028504 INVERTER
X_U3_U38         ENTRIP1 U3_V5FILT DIDEAL_PS PARAMS: RON=1E-3 ROFF=1E9
V_U3_V89         U3_V2P0 GND 2
R_U3_R28         GND U3_OOATIME  1e8 TC=0,0 
X_U3_U250         U3_N13634762 U3_N13635534 U3_OOACHECK AND
X_U3_U263         U3_SSENDSET ENCIRD1 ENCIRD1 U3_N8024778 NAND3_PS PARAMS:
+  VHI=1 VLO=0 VTHRESH=500E-3 TPLH=1E-9 TPHL=1E-9 TR=1E-9 TF=1E-9
X_U3_U291         U3_N82894701 U3_DRL2 INVERTER
X_U3_U216         U3_N8030908 ENCIRD1 U3_N8031828 AND
E_U3_ABM57         U3_OOAGAIN 0 VALUE { if( V(U3_OOA) >0.5 & V(VFB1)>2.02,  
+ (V(VSS1)+0.038 - V(VFB1))*200  
+ ,1)  }
X_U3_U279         U3_HIDRIVE U3_N80260841 INVERTER
E_U3_ABM30         U3_N8024454 0 VALUE { if(V(U3_ON) <0.5,1,0)    }
E_U3_ABM3         U3_DRVH_EVENT 0 VALUE { if(V(DRVH1)>5,1,0)    }
X_U3_U270         U3_N8029732 U3_N80253622 U3_N8025810 NOR2
X_U3_U265         U3_ON U3_ONSET U3_ONSET U3_N8024982 NAND3_PS
+ PARAMS: VHI=1
+  VLO=0 VTHRESH=500E-3 TPLH=1E-9 TPHL=1E-9 TR=1E-9 TF=1E-9
E_U3_ABM60         U3_LOW_C 0 VALUE { if(V(VFB1)>1.85,1,0)    }
X_U3_U238         ENCIRD1 U3_N8026108 U3_N8028554 AND
E_U3_ABM54         U3_OOAPULSE 0 VALUE { if(V(U3_OOATIME)>1,1,0)    }
X_U3_U202         U3_N80252781 U3_N8029540 BUFFER_PS PARAMS: VHI=1 VLO=0
+  VTHRESH=500E-3 TPLH=20E-9 TPHL=2E-9 TR=1E-9 TF=1E-9
X_U3_U271         U3_HIDEL U3_N80256102 U3_ENLOW1 NOR2
R_U3_R3         GND U3_OOA  1Meg TC=0,0 
X_U3_U292         U3_N8029862 U3_N82909511 INVERTER
X_U3_U244         U3_N8030134 U3_N8031174 INVERTER
X_U3_U239         U3_N80297120 U3_LOOPB INVERTER
X_U3_U191         U3_N8032008 U3_N8031306 BUFFER_PS PARAMS: VHI=1 VLO=0
+  VTHRESH=500E-3 TPLH=2E-9 TPHL=50n TR=1E-9 TF=1E-9
X_U3_U268         U3_N8031166 ENCIRD1 U3_N8031174 U3_N8028310
+ NAND3_PS PARAMS:
+  VHI=1 VLO=0 VTHRESH=500E-3 TPLH=1E-9 TPHL=1E-9 TR=1E-9 TF=1E-9
X_U3_U276         U3_OVP U3_N8024868 U3_LOWDRIVE OR
X_U3_U201         U3_N8031494 U3_N8028354 BUFFER_PS PARAMS: VHI=1 VLO=0
+  VTHRESH=500E-3 TPLH=20E-9 TPHL=2E-9 TR=1E-9 TF=1E-9
X_U3_U13          U3_P675VREF VFB1 U3_HYSTVAL U3_UV COMP_HYS
X_U3_U282         U3_HIDRIVE U3_N8030314 U3_N8031562 AND
X_U3_U281         U3_DRVH_EVENT U3_N8031306 U3_HIDEL AND
X_U3_U217         U3_DQOS U3_N8031828 U3_TOS OR
X_U3_S8    U3_DRL1 GND VREG5 DRVL1 DCAP_ch1_U3_S8 
X_U3_U288         U3_N8028354 U3_N8029506 INVERTER
X_U3_U293         U3_N82909511 U3_DRH2 INVERTER
X_U3_U295         U3_N8024792 U3_HIDEL U3_HIDRIVE NAND2_PS
+ PARAMS: VHI=1 VLO=0
+  VTHRESH=500E-3 TPLH=1E-9 TPHL=1E-9 TR=1E-9 TF=1E-9
X_U3_U302         U3_DRVH_EVENT U3_QRMP U3_N134642782
+ MONOPOS_PS PARAMS: PW=2n
E_U3_ABM10         U3_LUPB 0 VALUE { if( V(U3_REFEFF)  
+ >V(VFB1) ,1,0)   }
X_U3_U114         VREG5 VBST1 DIDEAL_PS PARAMS: RON=1E-3 ROFF=1E9
X_U3_U267         U3_N8028310 U3_N8031166 U3_TOS U3_TOS NAND3_PS
+ PARAMS: VHI=1
+  VLO=0 VTHRESH=500E-3 TPLH=1E-9 TPHL=1E-9 TR=1E-9 TF=1E-9
E_U3_ABM32         U3_UVS 0 VALUE { if( V(SSEND1)> 0.5 &  
+ V(U3_UVD)>0.5,1,0)   }
E_U3_ABM6         U3_1P125VREF 0 VALUE { V(U3_V2P0) * 1.125    }
X_U3_U212         U3_N80290140 U3_N8029862 BUFFER_PS PARAMS: VHI=1 VLO=0
+  VTHRESH=500E-3 TPLH=40E-9 TPHL=2E-9 TR=1E-9 TF=1E-9
E_U3_ABM46         U3_RAMP 0 VALUE { if(V(ENCIRD1)>0.5,  
+ LIMIT((V(U3_RMP)-0.02),-20m,3.5m),0)   }
G_U3_ABMII1         U3_V5FILT ENTRIP1 VALUE { if(V(EN0) >0.5,10u,0)    }
E_U3_ABM33         U3_OVS 0 VALUE { if( V(ENCIRD1)> 0.5 &  
+ V(U3_OVD)>0.5,1,0)   }
R_U3_R26         GND U3_N134642782  1e8 TC=0,0 
X_U3_S13    U3_OOACHECK GND U3_OOATIME GND DCAP_ch1_U3_S13 
R_U3_R30         GND EN0  1e6 TC=0,0 
R_U3_R19         GND TONSEL  1e11 TC=0,0 
X_U3_U297         U3_N8024746 U3_N82924361 INVERTER
X_U3_U274         ENCIRD1 U3_DRVOFF INVERTER
E_U3_ABM59         U3_HIGH_C 0 VALUE { if(V(VFB1)<2.15,1,0)    }
E_U3_ABM53         U3_VSEL 0 VALUE { ( V(U3_TSEL)  
+ * V(VO1) *0.6667)    }
R_U3_R12         GND U3_N8029192  1Meg  
X_U3_U277         U3_ENLOW2 U3_N8032134 U3_N8031784 OR
R_U3_R29         GND U3_ZCTHRESH  1e4 TC=0,0 
X_U3_U23          VFB1 U3_1P125VREF U3_HYSTVAL U3_OV COMP_HYS
X_U3_U247         U3_LOWREADY U3_N80253622 INVERTER
X_U3_U280         U3_LOWDRIVE U3_N80252782 INVERTER
R_U3_R11         GND U3_N8027814  1Meg  
E_U3_ABM51         U3_DISCH 0 VALUE { if( V(U3_OVP)>0.5 |  
+ V(U3_UVP) >0.5 |  
+ V(ENCIRD1) <0.5,1,0)  }
X_U3_S5    U3_DRH1 GND VBST1 DRVH1 DCAP_ch1_U3_S5 
E_U3_ABM21         U3_HYSTVAL 0 VALUE { V(U3_V2P0) * 0.1    }
X_U3_U294         U3_HIREADY U3_ON U3_N8025810 NAND2_PS PARAMS: VHI=1 VLO=0
+  VTHRESH=500E-3 TPLH=1E-9 TPHL=1E-9 TR=1E-9 TF=1E-9
X_U3_U269         U3_LOWREADY U3_ENLOW1 U3_ONB U3_ENLOW2
+ NAND3_PS PARAMS: VHI=1
+  VLO=0 VTHRESH=500E-3 TPLH=1E-9 TPHL=1E-9 TR=1E-9 TF=1E-9
R_U3_R13         GND U3_N8027806  1Meg  
X_U3_U283         U3_N8029314 U3_N80260841 U3_N80290140 AND
C_U3_C4         GND U3_TON  10p IC=0 TC=0,0 
E_U3_ABM28         U3_N8029632 0 VALUE { if( V(U3_N8031864)>0.5  
+ & V(U3_N8024454)>0.5 ,1,0)   }
X_U3_U193         U3_HIREADY U3_DQOS BUFFER_PS PARAMS: VHI=1 VLO=0
+  VTHRESH=500E-3 TPLH=2E-9 TPHL=2E-9 TR=1E-9 TF=1E-9
X_U3_U142         U3_ONSET U3_OVPX U3_N8028342 U3_N8028908
+ U3_N8028310 OR4_PS
+  PARAMS: VHI=1 VLO=0 VTHRESH=500E-3 TPLH=1E-9 TPHL=1E-9 TR=1E-9 TF=1E-9
E_U3_ABM23         U3_N13413812 0 VALUE { if(V(TONSEL)>3.6, 0.5481,0)    }
X_U3_U240         U3_NCL U3_N8028596 INVERTER
X_U3_U258         U3_N8028342 U3_N8028448 U3_TBLNKB ENCIRD1 NAND3_PS PARAMS:
+  VHI=1 VLO=0 VTHRESH=500E-3 TPLH=1E-9 TPHL=1E-9 TR=1E-9 TF=1E-9
X_U3_S6    U3_DRH2 GND DRVH1 LL1 DCAP_ch1_U3_S6 
X_U3_U262         U3_ENLOW2 U3_N8024952 U3_TBLNKB ENCIRD1 NAND3_PS PARAMS:
+  VHI=1 VLO=0 VTHRESH=500E-3 TPLH=1E-9 TPHL=1E-9 TR=1E-9 TF=1E-9
X_U3_U257         U3_N8028448 U3_LBB U3_LBB U3_N8028342 NAND3_PS
+ PARAMS: VHI=1
+  VLO=0 VTHRESH=500E-3 TPLH=1E-9 TPHL=1E-9 TR=1E-9 TF=1E-9
E_U3_ABM13         PGOOD1 0 VALUE { if( V(U3_HIGH_C)>0.5  
+ & V(U3_LOW_C)>0.5   
+ & V(ENCIRD1)>0.5, 1, 0 )  }
E_U3_ABM34         U3_UVP 0 VALUE { if( V(U3_UVLATCH)> 0.5 &  
+ V(SSEND1)>0.5,1,0)   }
C_U3_C10         GND U3_RMP  4p IC=0 TC=0,0 
X_U3_U299         U3_N8028354 U3_N82980261 INVERTER
E_U3_ABM37         U3_N13413862 0 VALUE { if(V(TONSEL)>3.1 & V(TONSEL)<3.5,
+  0.6683,0)    }
E_U3_ABM29         U3_N8031864 0 VALUE { if(V(LL1) <0.5,1,0)    }
X_U3_U26         U3_UV U3_UVD delay PARAMS: PARAMS: T=32000
X_U3_U286         U3_N8024746 U3_N8029314 INVERTER
X_U3_U264         U3_N8024778 U3_SSENDSET U3_N8024792 SSEND1 NAND3_PS PARAMS:
+  VHI=1 VLO=0 VTHRESH=500E-3 TPLH=1E-9 TPHL=1E-9 TR=1E-9 TF=1E-9
E_U3_ABM8         U3_MODECHECK 0 VALUE { if( V(U3_PWMMODE)>0.5,  
+ V(ENTRIP1),  
+ V(U3_ZCTHRESH) )  }
X_U3_U188         U3_N8028310 U3_N8028358 BUFFER_PS PARAMS: VHI=1 VLO=0
+  VTHRESH=500E-3 TPLH=2E-9 TPHL=10E-9 TR=1E-9 TF=1E-9
X_U3_U266         U3_N8024982 U3_ON U3_TOS ENCIRD1 NAND3_PS
+ PARAMS: VHI=1 VLO=0
+  VTHRESH=500E-3 TPLH=1E-9 TPHL=1E-9 TR=1E-9 TF=1E-9
R_U3_R25         GND U3_RMP  1e8 TC=0,0 
E_U3_E1         GND U3_OCLTHR GND ENTRIP1 -1
E_U3_ABM38         U3_N13413872 0 VALUE { if(V(TONSEL)>1.8 & V(TONSEL)<2.2,
+  0.8173,0)    }
E_U3_ABM58         U3_OVPX 0 VALUE { if(V(VO1)>5.9,1,0)    }
E_U3_ABM35         U3_OVP 0 VALUE { if( V(U3_OVLATCH)> 0.5 &  
+ V(ENCIRD1)>0.5,1,0)   }
G_U3_ABM2I1         U3_V5FILT U3_TON VALUE { if(V(U3_DQOS)<0.25,
+ V(LL1)/720K,0) }
G_U3_ABMII2         U3_V5FILT U3_OOATIME VALUE { if(V(U3_OOACHECK)>0.5,
+  0.125u,0)    }
V_U3_V82         U3_N8030340 U3_VOUT_TON 70m
X_U3_U287         U3_N8029862 U3_N8030314 INVERTER
R_U3_R14         GND U3_N8029198  1Meg  
X_U3_U245         U3_N8029732 U3_N8032134 INVERTER
E_U3_ABM47         U3_N13413882 0 VALUE { if( V(TONSEL)<0.7, 1,0)    }
X_U3_U192         DRVL1 U3_N8029732 BUFFER_PS PARAMS: VHI=1 VLO=0 VTHRESH=2.5
+  TPLH=2E-9 TPHL=2E-9 TR=1E-9 TF=1E-9
X_U3_S2    U3_DISCH GND VO1 GND DCAP_ch1_U3_S2 
R_U3_R10         U3_N8025596 ENCIRD1  200  
X_U3_U259         U3_N8028968 U3_OCLDIS U3_OCLDIS U3_N8028908 NAND3_PS PARAMS:
+  VHI=1 VLO=0 VTHRESH=500E-3 TPLH=1E-9 TPHL=1E-9 TR=1E-9 TF=1E-9
R_U3_R27         GND U3_QRMP  1e8 TC=0,0 
R_U3_R18         VREG5 U3_V5FILT  3.32  
E_U3_ABM12         U3_NCL 0 VALUE { if( V(U3_LLO)  
+ >V(U3_N8028602) ,1,0)   }
E_U3_ABM42         U3_N13422343 0 VALUE { if(V(SKIPSEL) >3.1 & V(SKIPSEL) <3.5
+  &  
+ V(U3_V5INOK) >0.5,1,0)   }
X_U3_U249         U3_ON U3_ONB INVERTER
X_U3_U48         U3_UVS U3_N8027806 U3_UVLATCH U3_N8027814
+ srnandlatchshp_basic
C_U3_C8         U3_N8025596 U3_SPIKE  140.5p IC=0 
R_U3_R23         GND PGOOD1  1e6  
X_U3_U275         U3_DRVOFF U3_OVP U3_HIREADY U3_UVP U3_HIDRIVE NOR4
V_U3_V87         U3_N8028602 U3_MODECHECK -5m
X_U3_U241         U3_BLNKM U3_LOOPB U3_LBB OR
G_U3_ABM2I2         U3_TON GND VALUE { if(V(U3_DQOS) >.75, V(U3_TON)/200,0)   
+  }
R_U3_R24         GND U3_TON  10Meg TC=0,0 
X_U3_U285         U3_N8029506 U3_N80252782 U3_N80252781 AND
X_U3_U39         U3_ZCTHRESH U3_V5FILT DIDEAL_PS PARAMS: RON=1E-3 ROFF=1E9
X_U3_U189         U3_N8030134 U3_LOWREADY INV_PS PARAMS: VHI=1 VLO=0
+  VTHRESH=500E-3 TPLH=200E-9 TPHL=10E-9 TR=1E-9 TF=1E-9
C_U3_C11         GND U3_V5FILT  1u IC=0 
E_U3_ABM43         U3_PWMMODE 0 VALUE { if(V(SKIPSEL) <0.7 &  
+ V(U3_V5INOK) >0.5,1,0)   }
X_U3_U213         U3_N8031562 U3_N8024746 BUFFER_PS PARAMS: VHI=1 VLO=0
+  VTHRESH=500E-3 TPLH=40E-9 TPHL=2E-9 TR=1E-9 TF=1E-9
E_U3_ABM48         U3_N13413902 0 VALUE { ( V(U3_N13413812)  
+ +V(U3_N13413862) )    }
E_U3_ABM19         U3_N8030908 0 VALUE { if( V(U3_N8030340)  
+ >V(U3_TON) ,1,0)   }
R_U3_R5         GND U3_SPIKE  100k  
X_U3_U272         U3_LOWREADY U3_SSENDSET U3_UVP U3_N8024868 NOR3
X_U3_U298         U3_N82924361 U3_DRH1 INVERTER
G_U3_ABM2I3         U3_V5FILT U3_RMP VALUE { if(V(ENCIRD1)>0.5,
+  (16n/V(U3_TSEL)),0)    }
E_U3_ABM44         U3_N13634762 0 VALUE { if(V(U3_OOA) >0.5 &  
+ V(ENCIRD1) >0.5,1,0)   }
X_U3_U246         U3_N8028358 U3_TBLNKB INVERTER
E_U3_ABM15         U3_REFEFF 0 VALUE { ( V(U3_RAMP)  
+ + V(VSS1) )   }
E_U3_ABM11         U3_N8026108 0 VALUE { if( V(U3_OCLTHR)  
+ >V(U3_LLO) ,1,0)   }
X_U3_U278         U3_HIREADY U3_N8032008 INVERTER
X_U3_U50         U3_OVS U3_N8029198 U3_OVLATCH U3_N8029192
+ srnandlatchshp_basic
R_U3_R31         GND U3_NODEA  1e6 TC=0,0 
X_U3_U248         U3_HIREADY U3_N80256102 INVERTER
X_U3_U251         U3_LUPB U3_OOAPULSE U3_N80297120 OR
X_U3_S12    U3_QRMP GND U3_RMP GND DCAP_ch1_U3_S12 
X_U26         TODELAY N13443403 delay PARAMS:  T={PGDEL* 1000000}
X_S1    N13443403 GND PGOOD GND TPS51125_TRANS_S1 
X_U2_U250         U2_N14022157 U2_N14022663 U2_OOACHECK AND
X_U2_U216         U2_N14022769 ENCIRD2 U2_N14023345 AND
X_U2_U269         U2_LOWREADY U2_ENLOW1 U2_ONB U2_ENLOW2 NAND3_PS
+ PARAMS: VHI=1
+  VLO=0 VTHRESH=500E-3 TPLH=1E-9 TPHL=1E-9 TR=1E-9 TF=1E-9
X_U2_U247         U2_LOWREADY U2_N140179612 INVERTER
E_U2_ABM48         U2_N14021341 0 VALUE { ( V(U2_N14021161)  
+ +V(U2_N14021255) )    }
X_U2_U257         U2_N14020489 U2_LBB U2_LBB U2_N14019203 NAND3_PS PARAMS:
+  VHI=1 VLO=0 VTHRESH=500E-3 TPLH=1E-9 TPHL=1E-9 TR=1E-9 TF=1E-9
X_U2_U287         U2_N14019195 U2_N14022401 INVERTER
X_U2_U266         U2_N14020387 U2_ON U2_TOS ENCIRD2 NAND3_PS PARAMS: VHI=1
+  VLO=0 VTHRESH=500E-3 TPLH=1E-9 TPHL=1E-9 TR=1E-9 TF=1E-9
X_U2_U296         U2_BLNKM U2_TBLNKB U2_N14023323 NAND2_PS
+ PARAMS: VHI=1 VLO=0
+  VTHRESH=500E-3 TPLH=1E-9 TPHL=1E-9 TR=1E-9 TF=1E-9
E_U2_ABM43         U2_PWMMODE 0 VALUE { if(V(SKIPSEL) <0.7 &  
+ V(U2_V5INOK) >0.5,1,0)   }
X_U2_U239         U2_N140218770 U2_LOOPB INVERTER
X_U2_U283         U2_N14021497 U2_N140184031 U2_N140209990 AND
E_U2_ABM29         U2_N14023351 0 VALUE { if(V(LL2) <0.5,1,0)    }
X_U2_U291         U2_N140225251 U2_DRL2 INVERTER
X_U2_U48         U2_UVS U2_N14019743 U2_UVLATCH U2_N14019831
+  srnandlatchshp_basic PARAMS:
X_U2_U293         U2_N140234871 U2_DRH2 INVERTER
R_U2_R30         GND PGOOD2  1e6  
E_U2_ABM21         U2_HYSTVAL 0 VALUE { V(U2_V2P0) * 0.1    }
X_U2_U217         U2_DQOS U2_N14023345 U2_TOS OR
G_U2_ABM2I2         U2_TON GND VALUE { if(V(U2_DQOS) >.75, V(U2_TON)/200,0)   
+  }
V_U2_V87         U2_N14020617 U2_MODECHECK -5m
X_U2_U268         U2_N14022985 ENCIRD2 U2_N14022993 U2_N14019277 NAND3_PS
+  PARAMS: VHI=1 VLO=0 VTHRESH=500E-3 TPLH=1E-9 TPHL=1E-9 TR=1E-9 TF=1E-9
X_U2_U249         U2_ON U2_ONB INVERTER
X_U2_U251         U2_LUPB U2_OOAPULSE U2_N140218770 OR
E_U2_ABM51         U2_DISCH 0 VALUE { if( V(U2_OVP)>0.5 |  
+ V(U2_UVP) >0.5 |  
+ V(ENCIRD2) <0.5,1,0)  }
E_U2_ABM55         U2_NODEA 0 VALUE { LIMIT(V(U2_OOAGAIN) *  
+ V(U2_VSEL), 0.3,6)   }
X_U2_U286         U2_N14020465 U2_N14021497 INVERTER
R_U2_R24         GND U2_TON  10Meg TC=0,0 
E_U2_ABM39     U2_N14024527 0 VALUE { if(V(SKIPSEL) >4.8 & V(SKIPSEL) <5.2
+  &  
+ V(U2_V5INOK) >0.5,1,0)   }
X_U2_U26         U2_UV U2_UVD delay PARAMS: PARAMS: T=2000000
X_U2_U271         U2_HIDEL U2_N140180512 U2_ENLOW1 NOR2
E_U2_ABM35         U2_OVP 0 VALUE { if( V(U2_OVLATCH)> 0.5 &  
+ V(ENCIRD2)>0.5,1,0)   }
R_U2_R6         GND U2_PWMMODE  1Meg TC=0,0 
X_U2_U50         U2_OVS U2_N14239438 U2_OVLATCH U2_N14021317
+  srnandlatchshp_basic PARAMS:
E_U2_ABM12         U2_NCL 0 VALUE { if( V(U2_LLO)  
+ >V(U2_N14020617) ,1,0)   }
X_U2_U264    U2_N14024657 U2_SSENDSET U2_N14022269 SSEND2 NAND3_PS PARAMS:
+  VHI=1 VLO=0 VTHRESH=500E-3 TPLH=1E-9 TPHL=1E-9 TR=1E-9 TF=1E-9
X_U2_U282         U2_HIDRIVE U2_N14022401 U2_N14023231 AND
R_U2_R12         GND U2_N14021317  1Meg  
X_U2_U245         U2_N14019161 U2_N14023499 INVERTER
R_U2_R18         VREG5 U2_V5FILT  3.32  
E_U2_ABM8         U2_MODECHECK 0 VALUE { if( V(U2_PWMMODE)>0.5,  
+ V(ENTRIP2),  
+ V(U2_ZCTHRESH) )  }
X_U2_U39         U2_ZCTHRESH U2_V5FILT DIDEAL_PS PARAMS: RON=1E-3 ROFF=1E9
E_U2_ABM50         U2_N14021331 0 VALUE { ( V(U2_N14021271)  
+ +V(U2_N14021281) )    }
E_U2_ABM30         U2_N14024219 0 VALUE { if(V(U2_ON) <0.5,1,0)    }
E_U2_ABM44         U2_N14022157 0 VALUE { if(V(U2_OOA) >0.5 &  
+ V(ENCIRD2) >0.5,1,0)   }
X_U2_S7    U2_DRL2 GND DRVL2 GND DCAP_ch2_U2_S7 
X_U2_U285         U2_N14021709 U2_N140186111 U2_N140223070 AND
X_U2_U284         U2_LOWDRIVE U2_N14020537 U2_N14023185 AND
X_U2_S5    U2_DRH1 GND VBST2 DRVH2 DCAP_ch2_U2_S5 
R_U2_R17         GND U2_UVS  1Meg  
X_U2_S12    U2_QRMP GND U2_RMP GND DCAP_ch2_U2_S12 
C_U2_C13         GND U2_OOATIME  4p IC=0 TC=0,0 
X_U2_U298         U2_N140237751 U2_DRH1 INVERTER
X_U2_U241         U2_BLNKM U2_LOOPB U2_LBB OR
E_U2_ABM58         U2_OVPX 0 VALUE { if(V(VO2)>5.9,1,0)    }
E_U2_ABM52         U2_TSEL 0 VALUE { ( V(U2_N14021341)  
+ +V(U2_N14021331) )    }
X_U2_U142         U2_ONSET U2_OVPX U2_N14019203 U2_N14019165 U2_N14019277
+  OR4_PS PARAMS: VHI=1 VLO=0 VTHRESH=500E-3 TPLH=1E-9 TPHL=1E-9 TR=1E-9
+ TF=1E-9
X_U2_U259         U2_N14020909 U2_OCLDIS U2_OCLDIS U2_N14019165 NAND3_PS
+  PARAMS: VHI=1 VLO=0 VTHRESH=500E-3 TPLH=1E-9 TPHL=1E-9 TR=1E-9 TF=1E-9
X_U2_U276         U2_OVP U2_N14024839 U2_LOWDRIVE OR
E_U2_ABM23         U2_N14021161 0 VALUE { if(V(TONSEL)>3.6, 0.545,0)    }
C_U2_C8         U2_N14018037 U2_SPIKE  140.5p IC=0 
X_U2_U246         U2_N14020433 U2_TBLNKB INVERTER
E_U2_ABM34         U2_UVP 0 VALUE { if( V(U2_UVLATCH)> 0.5 &  
+ V(SSEND2)>0.5,1,0)   }
C_U2_C11         GND U2_V5FILT  1u IC=0 
E_U2_ABM45         U2_N14022663 0 VALUE { if(V(U2_HIDRIVE) < 0.5 &  
+ V(U2_LOWDRIVE) <0.5,1,0)   }
X_U2_U272         U2_LOWREADY U2_SSENDSET U2_UVP U2_N14024839 NOR3
E_U2_E1         GND U2_OCLTHR GND ENTRIP2 -1
V_U2_V82         U2_N14022411 U2_VOUT_TON 70m
X_U2_U288         U2_N14020429 U2_N14021709 INVERTER
R_U2_R28         GND U2_OOATIME  1e8 TC=0,0 
X_U2_U213         U2_N14023231 U2_N14020465 BUFFER_PS PARAMS: VHI=1 VLO=0
+  VTHRESH=500E-3 TPLH=40E-9 TPHL=2E-9 TR=1E-9 TF=1E-9
X_U2_U13          U2_P675VREF VFB2 U2_HYSTVAL U2_UV COMP_HYS
X_U2_U212         U2_N140209990 U2_N14019195 BUFFER_PS PARAMS: VHI=1 VLO=0
+  VTHRESH=500E-3 TPLH=40E-9 TPHL=2E-9 TR=1E-9 TF=1E-9
E_U2_ABM46         U2_RAMP 0 VALUE { if(V(ENCIRD2)>0.5,  
+ LIMIT((V(U2_RMP)-0.02),-20m,3.5m),0)   }
C_U2_C4         GND U2_TON  10p IC=0 TC=0,0 
R_U2_R26         GND U2_N14024121  1e8 TC=0,0 
X_U2_U248         U2_HIREADY U2_N140180512 INVERTER
E_U2_ABM54         U2_OOAPULSE 0 VALUE { if(V(U2_OOATIME)>1,1,0)    }
E_U2_ABM33         U2_OVS 0 VALUE { if( V(ENCIRD2)> 0.5 &  
+ V(U2_OVD)>0.5,1,0)   }
E_U2_ABM15         U2_REFEFF 0 VALUE { ( V(U2_RAMP)  
+ + V(VSS2) )   }
X_U2_U263         U2_SSENDSET ENCIRD2 ENCIRD2 U2_N14024657 NAND3_PS PARAMS:
+  VHI=1 VLO=0 VTHRESH=500E-3 TPLH=1E-9 TPHL=1E-9 TR=1E-9 TF=1E-9
E_U2_ABM28         U2_N14021841 0 VALUE { if( V(U2_N14023351)>0.5  
+ & V(U2_N14024219)>0.5 ,1,0)   }
E_U2_ABM59         U2_HIGH_C 0 VALUE { if(V(VFB2)<2.15,1,0)    }
G_U2_ABMII3         U2_V5FILT U2_ZCTHRESH VALUE { if(V(U2_NODEA) < 0.01,
+  10u*(V(U2_NODEA)-0.01),0)    }
X_U2_U188         U2_N14019277 U2_N14020433 BUFFER_PS PARAMS: VHI=1 VLO=0
+  VTHRESH=500E-3 TPLH=2E-9 TPHL=10E-9 TR=1E-9 TF=1E-9
X_U2_U15          VREG5 U2_V5INOK COMP_HYS2 PARAMS:  TH=4.2 HYS=.3
X_U2_U302         U2_DRVH_EVENT U2_QRMP U2_N14024121 MONOPOS_PS PARAMS: PW=2n
X_U2_S2    U2_DISCH GND VO2 GND DCAP_ch2_U2_S2 
X_U2_U280         U2_LOWDRIVE U2_N140186111 INVERTER
E_U2_ABM37         U2_N14021255 0 VALUE { if(V(TONSEL)>3.1 & V(TONSEL)<3.5,
+  0.6636,0)    }
X_U2_U260         U2_N14019165 U2_N14020909 U2_TBLNKB ENCIRD2 NAND3_PS PARAMS:
+  VHI=1 VLO=0 VTHRESH=500E-3 TPLH=1E-9 TPHL=1E-9 TR=1E-9 TF=1E-9
X_U2_U289         U2_N14021743 U2_N14020537 INVERTER
R_U2_R5         GND U2_SPIKE  100k  
X_U2_U23          VFB2 U2_1P125VREF U2_HYSTVAL U2_OV COMP_HYS
R_U2_R31         GND EN0  1e6 TC=0,0 
X_U2_U275         U2_DRVOFF U2_OVP U2_HIREADY U2_UVP U2_HIDRIVE NOR4
C_U2_C12         GND U2_N14018037  100p IC=0 
X_U2_U192         DRVL2 U2_N14019161 BUFFER_PS PARAMS: VHI=1 VLO=0
+ VTHRESH=2.5
+  TPLH=2E-9 TPHL=2E-9 TR=1E-9 TF=1E-9
E_U2_ABM10         U2_LUPB 0 VALUE { if( V(U2_REFEFF)  
+ >V(VFB2) ,1,0)   }
R_U2_R29         GND U2_ZCTHRESH  1e4 TC=0,0 
E_U2_ABM32         U2_UVS 0 VALUE { if( V(SSEND2)> 0.5 &  
+ V(U2_UVD)>0.5,1,0)   }
X_U2_U240         U2_NCL U2_N14020611 INVERTER
E_U2_ABM5         U2_P675VREF 0 VALUE { V(U2_V2P0) * 0.75    }
E_U2_ABM40         U2_OOA 0 VALUE { if(V(U2_N14024519) >0.5 |  
+ V(U2_N14024527) >0.5,1,0)   }
X_U2_S13    U2_OOACHECK GND U2_OOATIME GND DCAP_ch2_U2_S13 
R_U2_R13         GND U2_OVLATCH  1Meg  
X_U2_U279         U2_HIDRIVE U2_N140184031 INVERTER
E_U2_ABM9         U2_LLO 0 VALUE { if( V(U2_N14021841)>0.5,  
+ V(LL2),  
+ V(GND) )  }
X_U2_U238         ENCIRD2 U2_N14018415 U2_N14020591 AND
R_U2_R27         GND U2_QRMP  1e8 TC=0,0 
R_U2_R11         GND U2_N14019831  1Meg  
R_U2_R15         GND U2_N14019743  1Meg  
E_U2_ABM57         U2_OOAGAIN 0 VALUE { if( V(U2_OOA) >0.5 & V(VFB2)>2.02,  
+ (V(VSS2)+0.038 - V(VFB2))*200  
+ ,1)  }
X_U2_U278         U2_HIREADY U2_N14023439 INVERTER
R_U2_R20         GND SKIPSEL  1e11 TC=0,0 
X_U2_U35         U2_OV U2_OVD delay PARAMS: PARAMS: T=32000