*$
* TPS51275
*****************************************************************************
* (C) Copyright 2012 Texas Instruments Incorporated. All rights reserved.                                            
*****************************************************************************
** This model is designed as an aid for customers of Texas Instruments.
** TI and its licensors and suppliers make no warranties, either expressed
** or implied, with respect to this model, including the warranties of 
** merchantability or fitness for a particular purpose.  The model is
** provided solely on an "as is" basis.  The entire risk as to its quality
** and performance is with the customer
*****************************************************************************
*
* This model is subject to change without notice. Texas Instruments
* Incorporated is not responsible for updating this model.
*
*****************************************************************************
*
** Released by: WEBENCH Design Center, Texas Instruments Inc.
* Part: TPS51275
* Date: 26JUN2012
* Model Type: TRANSIENT
* Simulator: PSPICE 
* Simulator Version: 16.2.0.p001
* EVM Order Number: 
* EVM Users Guide: 
* Datasheet: 
*
* Model Version: Final 1.00
*
*****************************************************************************
*
* Updates:
*
* Final 1.00
* Release to Web.
*
*****************************************************************************
.SUBCKT TPS51275_TRANS CS1 CS2 DRVH1 DRVH2 DRVL1 DRVL2 EN1 EN2 GND PGOOD SW1
+  SW2 VBST1 VBST2 VCLK VFB1 VFB2 VIN VO1 VREG3 VREG5 PARAMS: MODE=1
X_U191         TODELAY DELAY2 BUFFER_PS PARAMS: VHI=1 VLO=0 VTHRESH=500E-3
+  TPLH={(1- MODE*0.9) *0.5m} TPHL=10u TR=1E-9 TF=1E-9
X_U255         ENCIRD1 ENCIRD2 N15656858 AND
X_U240         N15656858 N15656792 INVERTER
X_U219         PGEN_INV PGEN INVERTER
E_ABM8         PGEN_INV 0 VALUE { if( V(N15656952)>0.5,  
+ V(DELAY2),  
+ V(DELAY) )  }
X_u5_U19         VREG3 u5_N10600939 VIN PMOSIDEAL_PS PARAMS: K=.3 VTH=1
V_u5_V7         u5_N10596726 GND 4.7
E_u5_ABM36         u5_N15531240 0 VALUE { if(V(EN1) > 1.6, 1,0)    }
X_u5_S10    N15159302 GND VREF GND LDOs_u5_S10 
X_u5_U14         VREF u5_N10597008 VIN PMOSIDEAL_PS PARAMS: K=.1 VTH=1
R_u5_R29         u5_N10596400 VREG5  750k TC=0,0 
V_u5_V8         u5_N10596574 GND .2
X_u5_U20         VREG3 VIN d_d1 PARAMS:
E_u5_ABM34         LOWVIN 0 VALUE { if( V(VIN) < 7, 1 ,0)    }
E_u5_ABM65         u5_N10600939 0 VALUE { if( V(N15159302)>0.5,  
+ V(u5_N10600895),  
+ V(VIN) )  }
E_u5_ABM35         VLOWVIN 0 VALUE { if( V(VIN) < 6, 1 ,0)    }
R_u5_R30         GND u5_N10596400  250K TC=0,0 
E_u5_ABM33         u5_N15529854 0 VALUE { if(V(EN2) > 1.6, 1,0)    }
E_u5_ABM61         u5_ENVO 0 VALUE { IF( V(N15159302)>0.5  
+ ,V(u5_VOREADY),0)   }
V_u5_V9         u5_N15513752 GND  
+PULSE 5 0 100u 10n 10n 1.85u 3.7u
R_u5_R8         u5_N10597060 VREF  150k TC=0,0 
X_u5_U16         u5_ENVO u5_ENV5IN delay PARAMS: T=1E4
X_u5_U28         u5_N10597374 VIN u5_N10597060 u5_VR VCVSCLIP_PS PARAMS:
+  GAIN=5000 VOMAX=1 VOMIN=-2
E_u5_ABM32         u5_VR 0 VALUE { if(V(VIN) > 4.58, 1.25,0)    }
R_u5_R16         GND u5_N10597060  250K TC=0,0 
R_u5_R31         u5_N10600367 VREG3  410k TC=0,0 
X_u5_S9    u5_ENV5IN GND VREG5 VO1 LDOs_u5_S9 
X_u5_U27         u5_N10596942 VIN u5_N10596400 u5_VR VCVSCLIP_PS PARAMS:
+  GAIN=5000 VOMAX=1 VOMIN=-2
E_u5_ABM68         u5_N10597008 0 VALUE { if( V(N15159302)>0.5,  
+ V(u5_N10597374),  
+ V(VIN) )  }
X_u5_U18         VREG5 u5_N10596986 VIN PMOSIDEAL_PS PARAMS: K=0.5 VTH=1
R_u5_R32         GND VCLK  10Meg TC=0,0 
E_u5_ABM69         VCLK 0 VALUE { if( V(EN1) > 0.5,  
+ V(u5_N15513752), 0)   }
X_u5_U21         VREG5 VIN d_d1 PARAMS:
E_u5_ABM62         u5_N10596986 0 VALUE { if( V(u5_ENLDO5)>0.5,  
+ V(u5_N10596942),  
+ V(VIN) )  }
X_u5_U255         u5_N15529854 u5_N15531240 u5_EN5 OR
X_u5_U7         VO1 u5_N10596726 u5_N10596574 u5_VOREADY COMP_HYS
R_u5_R33         GND u5_N10600367  250K TC=0,0 
E_u5_ABM60         u5_ENLDO5 0 VALUE { IF( V(u5_ENV5IN)<0.5  
+ & V(u5_EN5)>0.5 ,1,0)   }
X_u5_S11    N15159302 GND VREG3 GND LDOs_u5_S11 
X_u5_U29         u5_N10600895 VIN u5_N10600367 u5_VR VCVSCLIP_PS PARAMS:
+  GAIN=5000 VOMAX=1 VOMIN=-2
X_U192         N15657028 N15656934 BUFFER_PS PARAMS: VHI=1 VLO=0 VTHRESH=500E-3
+  TPLH=50u TPHL=10u TR=1E-9 TF=1E-9
X_U2_U260         U2_OCL U2_N8028968 U2_TBLNKB ENCIRD2 NAND3_PS PARAMS: VHI=1
+  VLO=0 VTHRESH=500E-3 TPLH=1E-9 TPHL=1E-9 TR=1E-9 TF=1E-9
X_U2_U277         U2_ENLOW2 U2_N8032134 U2_N8031784 OR
X_U2_U266         U2_N8024982 U2_ON U2_SHOT_OUT ENCIRD2 NAND3_PS PARAMS: VHI=1
+  VLO=0 VTHRESH=500E-3 TPLH=1E-9 TPHL=1E-9 TR=1E-9 TF=1E-9
X_U2_U13          U2_P675VREF VFB2 U2_HYSTVAL U2_UV COMP_HYS
X_U2_S7    U2_DRL2 GND DRVL2 GND DCAP_ch2_U2_S7 
X_U2_U301         ENCIRD2 U2_N15864378 U2_N15864500 AND
X_U2_U245         U2_N8029732 U2_N8032134 INVERTER
E_U2_ABM20         U2_N161355070 0 VALUE { if( V(U2_TON)   
+ <V(U2_LLAVG_NEW),1,0)   }
X_U2_U283         U2_N8029314 U2_N161364092 U2_N161364091 AND
E_U2_ABM15         U2_REFEFF 0 VALUE { ( V(U2_RAMP)  
+ + V(SS2) )   }
E_U2_ABM13         PGOOD2 0 VALUE { if( V(U2_HIGH_C)>0.5  
+ & V(U2_LOW_C)>0.5   
+ & V(ENUVPG2)>0.5, 1, 0 )  }
E_U2_ABM6         U2_1P125VREF 0 VALUE { V(U2_V2P0) * 1.15    }
X_U2_U294         U2_HIREADY U2_ON1 U2_N8025810 NAND2_PS PARAMS: VHI=1 VLO=0
+  VTHRESH=500E-3 TPLH=1E-9 TPHL=1E-9 TR=1E-9 TF=1E-9
E_U2_ABM61         U2_LLAVG_NEW 0 VALUE { if(V(U2_LLAVG)>0.3,V(U2_LLAVG),0.3)  
+   }
C_U2_C6         GND U2_N15668539  3p IC=0 TC=0,0 
X_U2_U50         U2_OVS U2_N8029198 U2_OVLATCH U2_N8029192 srnandlatchshp_basic
+  PARAMS:
X_U2_U273         U2_N15494388 U2_OCMDIS U2_OCMDIS U2_OCM NAND3_PS PARAMS:
+  VHI=1 VLO=0 VTHRESH=500E-3 TPLH=1E-9 TPHL=1E-9 TR=1E-9 TF=1E-9
X_U2_U214         U2_N15641500 U2_DRL2 BUFFER_PS PARAMS: VHI=1 VLO=0
+  VTHRESH=500E-3 TPLH=10E-9 TPHL=2E-9 TR=1E-9 TF=1E-9
V_U2_V87         U2_N8028602 U2_MODECHECK -5m
E_U2_ABM43         U2_N15320798 0 VALUE { if(V(GND) >0.7 &  
+ V(V5INOK) >0.5,1,0)   }
X_U2_U212         U2_N161364091 U2_DRH2 BUFFER_PS PARAMS: VHI=1 VLO=0
+  VTHRESH=500E-3 TPLH=10E-9 TPHL=2E-9 TR=1E-9 TF=1E-9
X_U2_U253         U2_BLNKM U2_N15484100 U2_OCMDIS OR
X_U2_U293         U2_EN_VIN_TONEXT GND U2_B_IN AND
X_U2_U213         U2_N8031562 U2_DRH1 BUFFER_PS PARAMS: VHI=1 VLO=0
+  VTHRESH=500E-3 TPLH=10E-9 TPHL=2E-9 TR=1E-9 TF=1E-9
X_U2_U193         U2_HIREADY U2_DQOS_IN BUFFER_PS PARAMS: VHI=1 VLO=0
+  VTHRESH=500E-3 TPLH=2E-9 TPHL=2E-9 TR=1E-9 TF=1E-9
E_U2_ABM3         U2_DRVH_EVENT 0 VALUE { if(V(DRVH2)>5,1,0)    }
X_U2_U275         U2_DRVOFF U2_DRVOFF U2_HIREADY U2_UVP U2_HIDRIVE_NON_DELAYED
+  NOR4
R_U2_R34         GND U2_VOS  1.2Meg TC=0,0 
E_U2_ABM17         U2_N15903762 0 VALUE { if( V(SSEND2) >0.5, V(U2_OCLTHR)
+  ,(V(U2_OCLTHR) * {(1+ MODE) }))    }
X_U2_U262         U2_ENLOW2 U2_ZC U2_TBLNKB ENCIRD2 NAND3_PS PARAMS: VHI=1
+  VLO=0 VTHRESH=500E-3 TPLH=1E-9 TPHL=1E-9 TR=1E-9 TF=1E-9
X_U2_U276         U2_OVP_LAT_TEST U2_N15240870 U2_LOWDRIVE OR
E_U2_ABM59         U2_HIGH_C 0 VALUE { if(V(VFB2)<2.15,1,0)    }
X_U2_U295         U2_N8024792 U2_DRVHPREBIAS U2_HIDRIVE NAND2_PS PARAMS: VHI=1
+  VLO=0 VTHRESH=500E-3 TPLH=1E-9 TPHL=1E-9 TR=1E-9 TF=1E-9
X_U2_U254         ENCIRD2 U2_N15484042 U2_N15484100 AND
X_U2_U48         U2_UVS U2_N15397273 U2_UVLATCH U2_N161350970
+  srnandlatchshp_basic PARAMS:
E_U2_ABM33         U2_OVS 0 VALUE { if( V(ENCIRD2)> 0.5 &  
+ V(U2_OVD)>0.5,1,0)   }
X_U2_U297         U2_SHOTIN U2_N16196667 INVERTER
R_U2_R39         U2_N15670337 U2_N15668539  3Meg TC=0,0 
X_U2_U244         U2_N8030134 U2_N8031174 INVERTER
R_U2_R9         U2_LLO U2_N15131182  100  
E_U2_ABM9         U2_OVP_LAT_TEST 0 VALUE { if( V(U2_NOCL_LATCH)>0.5,  
+ V(GND),  
+ V(U2_OVP) )  }
E_U2_ABM16         U2_N15484042 0 VALUE { if( V(U2_OCLTHR) * 0.5  
+ >V(U2_LLO) ,1,0)   }
X_U2_U242         U2_BLNKM U2_N8028554 U2_OCLDIS OR
R_U2_R16         GND U2_N16084940  1Meg  
X_U2_U264         U2_N8024778 U2_SSENDSET U2_N8024792 SSEND2 NAND3_PS PARAMS:
+  VHI=1 VLO=0 VTHRESH=500E-3 TPLH=1E-9 TPHL=1E-9 TR=1E-9 TF=1E-9
X_U2_U315         U2_HIDRIVE_NON_DELAYED U2_INDELAYED2 U2_HIDRIVE OR
R_U2_R40         U2_N15668539 U2_LLAVG  3Meg TC=0,0 
X_U2_U217         U2_DQOS U2_N8031828 U2_TOS OR
R_U2_R26         GND U2_N161369410  1e8 TC=0,0 
X_U2_U241         U2_BLNKM U2_LOOP_RAW U2_N15892913 OR
E_U2_ABM11         U2_N8026108 0 VALUE { if( V(U2_N15903762)   
+ >V(U2_LLO) ,1,0)   }
X_U2_U215         U2_N8031494 U2_DRL1 BUFFER_PS PARAMS: VHI=1 VLO=0
+  VTHRESH=500E-3 TPLH=10E-9 TPHL=2E-9 TR=1E-9 TF=1E-9
R_U2_R6         GND U2_PWMMODE  1Meg TC=0,0 
X_U2_U219         U2_N16196667 U2_DQOS_IN U2_DQOS OR
X_U2_U238         ENCIRD2 U2_N8026108 U2_N8028554 AND
X_U2_U285         U2_N8029506 U2_N161354171 U2_N15641500 AND
X_U2_U312         U2_NOCL_CHECK U2_NOCL_CHECK U2_N15892887 OR
X_U2_U194         U2_N161355070 U2_TRES BUFFER_PS PARAMS: VHI=1 VLO=0
+  VTHRESH=500E-3 TPLH=70n TPHL=70n TR=1E-9 TF=1E-9
X_U2_U290         U2_N15779287 U2_N15779287 U2_N15240870 AND
X_U2_U304         U2_ON1 U2_N16072501 U2_N16072501 U2_N16072573 NAND3_PS
+  PARAMS: VHI=1 VLO=0 VTHRESH=500E-3 TPLH=1E-9 TPHL=1E-9 TR=1E-9 TF=1E-9
X_U2_S12    U2_QRMP GND U2_RMP GND DCAP_ch2_U2_S12 
E_U2_ABM41         U2_PWMMODE 0 VALUE { if(V(0) >0.5 |  
+ V(U2_N15320798) >0.5,1,0)   }
X_U2_U195         U2_N16078343 U2_HIDRIVE_NON_DELAYED INV_PS PARAMS: VHI=1
+  VLO=0 VTHRESH=500E-3 TPLH=1E-9 TPHL=2E-9 TR=1E-9 TF=1E-9
X_U2_S6    U2_DRH2 GND DRVH2 SW2 DCAP_ch2_U2_S6 
X_U2_u20_U241         U2_u20_N13639852 U2_u20_N13640653 INVERTER
X_U2_u20_U254         U2_ON U2_SHOTIN U2_u20_N13636996 AND
X_U2_u20_U245         U2_u20_N13639852 U2_SHOTIN U2_SHOT_OUT OR
X_U2_u20_U247         U2_u20_N13636996 U2_u20_CLKD INVERTER
X_U2_u20_U253         U2_u20_N13634238 U2_C_IN U2_u20_N13634611 AND
R_U2_u20_R28         U2_u20_N136958671 GND  1e8 TC=0,0 
X_U2_u20_U259         U2_u20_N136958671 U2_u20_N13670242 U2_u20_CLKD
+  U2_LOOP_RAW U2_u20_N13681583 GND dffsr_rhpbasic1v PARAMS:
X_U2_u20_U244         U2_u20_Q0 U2_u20_Q1 U2_u20_N13639852 OR
X_U2_u20_u2_S11    U2_u20_N13636996 GND U2_u20_u2_N8032860 U2_u20_u2_N8035344
+  SDC_U2_u20_u2_S11 
X_U2_u20_u2_U245         U2_u20_u2_N8035344 U2_u20_Q0 INVERTER
X_U2_u20_u2_U242         U2_u20_N13636996 U2_u20_u2_CLKZ INVERTER
X_U2_u20_u2_U244         U2_u20_u2_N8033152 U2_u20_CLRZ U2_u20_u2_N8032860
+  NAND2_BASIC
R_U2_u20_u2_R31         GND U2_u20_u2_N8032072  1e11 TC=0,0 
X_U2_u20_u2_S12    U2_u20_u2_CLKZ GND U2_u20_u2_N8037538 U2_u20_u2_N8035344
+  SDC_U2_u20_u2_S12 
X_U2_u20_u2_U248         U2_u20_u2_N8035851 U2_u20_CLRZ U2_u20_u2_N8037538
+  NAND2_BASIC
R_U2_u20_u2_R29         GND U2_u20_u2_N8032860  1e11 TC=0,0 
X_U2_u20_u2_U246         U2_u20_u2_N8035344 U2_u20_u2_N8035851 INVERTER
X_U2_u20_u2_S9    U2_u20_u2_CLKZ GND U2_u20_u2_N8032072 U2_u20_u2_N8032363
+  SDC_U2_u20_u2_S9 
X_U2_u20_u2_U249         U2_u20_CO U2_u20_u2_N13650456 INVERTER
X_U2_u20_u2_S10    U2_u20_N13636996 GND U2_u20_u2_N8032363 U2_u20_u2_N8032860
+  SDC_U2_u20_u2_S10 
X_U2_u20_u2_U240         U2_u20_N13640653 U2_u20_u2_SZ INVERTER
X_U2_u20_u2_U243         U2_u20_u2_N8032363 U2_u20_u2_N8033152 INVERTER
X_U2_u20_u2_U250         U2_u20_N13641400 U2_u20_u2_N13650464 INVERTER
R_U2_u20_u2_R28         GND U2_u20_u2_N8032363  1e11 TC=0,0 
E_U2_u20_u2_ABM1         U2_u20_u2_N8032072 0 VALUE { if ( V(U2_u20_N13640653)>
+  0.5,  
+ V(U2_u20_u2_N13650456),  
+ V(U2_u20_u2_N13650464) )   }
X_U2_u20_u2_U247         U2_u20_u2_N8035851 U2_u20_N13639199 INVERTER
X_U2_u20_U255         U2_u20_N13670242 U2_N15864500 U2_u20_CLRZ AND
X_U2_u20_u3_S11    U2_u20_N13636996 GND U2_u20_u3_N8032860 U2_u20_u3_N8035344
+  SDC_U2_u20_u3_S11 
X_U2_u20_u3_U245         U2_u20_u3_N8035344 U2_u20_Q1 INVERTER
X_U2_u20_u3_U242         U2_u20_N13636996 U2_u20_u3_CLKZ INVERTER
X_U2_u20_u3_U244         U2_u20_u3_N8033152 U2_u20_CLRZ U2_u20_u3_N8032860
+  NAND2_BASIC
R_U2_u20_u3_R31         GND U2_u20_u3_N8032072  1e11 TC=0,0 
X_U2_u20_u3_S12    U2_u20_u3_CLKZ GND U2_u20_u3_N8037538 U2_u20_u3_N8035344
+  SDC_U2_u20_u3_S12 
X_U2_u20_u3_U248         U2_u20_u3_N8035851 U2_u20_CLRZ U2_u20_u3_N8037538
+  NAND2_BASIC
R_U2_u20_u3_R29         GND U2_u20_u3_N8032860  1e11 TC=0,0 
X_U2_u20_u3_U246         U2_u20_u3_N8035344 U2_u20_u3_N8035851 INVERTER
X_U2_u20_u3_S9    U2_u20_u3_CLKZ GND U2_u20_u3_N8032072 U2_u20_u3_N8032363
+  SDC_U2_u20_u3_S9 
X_U2_u20_u3_U249         U2_u20_S U2_u20_u3_N13650456 INVERTER
X_U2_u20_u3_S10    U2_u20_N13636996 GND U2_u20_u3_N8032363 U2_u20_u3_N8032860
+  SDC_U2_u20_u3_S10 
X_U2_u20_u3_U240         U2_u20_N13640653 U2_u20_u3_SZ INVERTER
X_U2_u20_u3_U243         U2_u20_u3_N8032363 U2_u20_u3_N8033152 INVERTER
X_U2_u20_u3_U250         U2_u20_N13639471 U2_u20_u3_N13650464 INVERTER
R_U2_u20_u3_R28         GND U2_u20_u3_N8032363  1e11 TC=0,0 
E_U2_u20_u3_ABM1         U2_u20_u3_N8032072 0 VALUE { if ( V(U2_u20_N13640653)>
+  0.5,  
+ V(U2_u20_u3_N13650456),  
+ V(U2_u20_u3_N13650464) )   }
X_U2_u20_u3_U247         U2_u20_u3_N8035851 U2_u20_N13641212 INVERTER
X_U2_u20_U248         U2_ON U2_u20_N13681583 INVERTER
X_U2_u20_U5         U2_u20_N13639199 U2_u20_N13641212 U2_u20_N13641400
+  NOR2_BASIC
X_U2_u20_U250         U2_OCM U2_B_IN U2_u20_N13634634 AND
X_U2_u20_U251         U2_OCM U2_B_IN U2_u20_N13634238 XOR2_BASIC
X_U2_u20_U243         U2_u20_N13634611 U2_u20_N13634634 U2_u20_CO OR
X_U2_u20_U252         U2_u20_N13634238 U2_C_IN U2_u20_S XOR2_BASIC
X_U2_u20_U4         U2_u20_N13639199 U2_u20_Q1 U2_u20_N13639471 NOR2_BASIC
R_U2_R35         U2_TON U2_N15768842  710k TC=0,0 
X_U2_U284         U2_LOWDRIVE_MUX U2_N8028504 U2_N8031494 AND
R_U2_R275         U2_N16078511 U2_INDELAYED2  40.40  
X_U2_U320         U2_NOCL_CHECK U2_N16084956 INVERTER
E_U2_ABM51         U2_DISCH 0 VALUE { if( V(U2_OVP)>0.5 |  
+ V(U2_UVP) >0.5 |  
+ V(ENCIRD2) <0.5,1,0)  }
E_U2_E1         GND U2_OCLTHR GND CS2 -.125
E_U2_ABM5         U2_P675VREF 0 VALUE { V(U2_V2P0) * 0.6    }
X_U2_U316         U2_PWMMODE U2_PWMMODE U2_N16061205 OR
E_U2_ABM32         U2_UVS 0 VALUE { if( V(ENUVPG2)> 0.5 &  
+ V(U2_UVD)>0.5,1,0)   }
E_U2_ABM58         U2_OVPX 0 VALUE { if(V(U2_LLAVG)>5.9,1,0)    }
R_U2_R25         GND U2_RMP  1e8 TC=0,0 
X_U2_U189         U2_N8030134 U2_LOWREADY INV_PS PARAMS: VHI=1 VLO=0
+  VTHRESH=500E-3 TPLH=270E-9 TPHL=10E-9 TR=1E-9 TF=1E-9
X_U2_U287         U2_DRH2 U2_N8030314 INVERTER
X_U2_U263         U2_SSENDSET ENCIRD2 ENCIRD2 U2_N8024778 NAND3_PS PARAMS:
+  VHI=1 VLO=0 VTHRESH=500E-3 TPLH=1E-9 TPHL=1E-9 TR=1E-9 TF=1E-9
R_U2_R17         GND U2_N161353253  1Meg  
R_U2_R15         GND U2_N161365030  1Meg  
X_U2_U309         U2_N15892913 U2_N15892887 U2_LBB AND
R_U2_R27         GND U2_QRMP  1e8 TC=0,0 
X_U2_U243         U2_BLNKM U2_N8028596 U2_N8024896 OR
R_U2_R38         U2_VOS U2_N15670337  3Meg TC=0,0 
V_U2_V89         U2_V2P0 GND 2
X_U2_S2    U2_DISCH GND SW2 GND DCAP_ch2_U2_S2 
R_U2_R14         GND U2_N8029198  1Meg  
R_U2_R28         U2_ON1_BAR_DELAY U2_ON1_BAR  284.477k TC=0,0 
X_U2_U259         U2_N8028968 U2_OCLDIS U2_OCLDIS U2_OCL NAND3_PS PARAMS: VHI=1
+  VLO=0 VTHRESH=500E-3 TPLH=1E-9 TPHL=1E-9 TR=1E-9 TF=1E-9
R_U2_R3         GND U2_OOA  1Meg TC=0,0 
X_U2_U268         U2_N8031166 ENCIRD2 U2_N8031174 U2_N8028310 NAND3_PS PARAMS:
+  VHI=1 VLO=0 VTHRESH=500E-3 TPLH=1E-9 TPHL=1E-9 TR=1E-9 TF=1E-9
X_U2_U256         U2_EN_VIN_TONEXT GND U2_N15864690 AND
X_U2_U321         U2_NOCL_CHECK U2_N16090906 INVERTER
X_U2_U307         U2_ON1 U2_ON1_BAR INVERTER
X_U2_U278         U2_HIREADY U2_N8032008 INVERTER
X_U2_U26         U2_UV U2_UVD delay PARAMS: T=250000
E_U2_E7         U2_RMPIN GND U2_RMP GND 1
E_U2_ABM34         U2_UVP 0 VALUE { if( V(U2_UVLATCH)> 0.5 &  
+ V(ENUVPG2)>0.5,1,0)   }
X_U2_U299         U2_N15870546 U2_TRES U2_TRES U2_N15870610 NAND3_PS PARAMS:
+  VHI=1 VLO=0 VTHRESH=500E-3 TPLH=1E-9 TPHL=1E-9 TR=1E-9 TF=1E-9
X_U2_U51         U2_LOWDRIVE U2_N16090906 U2_LOWRIVE_LATCH U2_N161353253
+  srnandlatchshp_basic PARAMS:
E_U2_E2         GND U2_N15896218 GND U2_OCLTHR -1
X_U2_U298         U2_N15864586 SSEND2 U2_C_IN AND
X_U2_S8    U2_DRL1 GND VREG5 DRVL2 DCAP_ch2_U2_S8 
X_U2_U289         U2_DRL2 U2_N8028504 INVERTER
X_U2_U23          VFB2 U2_1P125VREF U2_HYSTVAL U2_OV COMP_HYS
X_U2_U303         U2_N15860612 U2_N15860612 U2_N15864378 AND
E_U2_ABM10         U2_LUPB 0 VALUE { if( V(U2_REFEFF)  
+ >V(VFB2) ,1,0)   }
R_U2_R11         GND U2_N161350970  1Meg  
X_U2_U267         U2_N8028310 U2_N8031166 U2_SHOT_OUT U2_SHOT_OUT NAND3_PS
+  PARAMS: VHI=1 VLO=0 VTHRESH=500E-3 TPLH=1E-9 TPHL=1E-9 TR=1E-9 TF=1E-9
X_U2_U239         U2_N161363571 U2_LOOPB INVERTER
X_U2_U282         U2_HIDRIVE U2_N8030314 U2_N8031562 AND
X_U2_U300         U2_N15870610 U2_N15870546 U2_SHOTIN ENCIRD2 NAND3_PS PARAMS:
+  VHI=1 VLO=0 VTHRESH=500E-3 TPLH=1E-9 TPHL=1E-9 TR=1E-9 TF=1E-9
X_U2_S15    U2_DQOS GND U2_TON U2_N15791614 DCAP_ch2_U2_S15 
X_U2_U258         U2_N8028342 U2_N8028448 U2_TBLNKB ENCIRD2 NAND3_PS PARAMS:
+  VHI=1 VLO=0 VTHRESH=500E-3 TPLH=1E-9 TPHL=1E-9 TR=1E-9 TF=1E-9
X_U2_U192         DRVL2 U2_N8029732 BUFFER_PS PARAMS: VHI=1 VLO=0 VTHRESH=2.5
+  TPLH=2E-9 TPHL=2E-9 TR=1E-9 TF=1E-9
E_U2_ABM18         U2_NOCL_CHECK 0 VALUE { if( V(U2_LLO)  
+ >V(U2_N15896218) ,0,1)   }
C_U2_C14         U2_LLO GND  10p  TC=0,0 
C_U2_C176         0 U2_INDELAYED2  1n  
E_U2_ABM12         U2_NCL 0 VALUE { if( V(U2_LLO)  
+ >V(U2_N8028602) ,1,0)   }
X_U2_U249         U2_ON1 U2_ONB INVERTER
X_U2_U218         U2_N16072657 U2_DRVOFF U2_N16072573 OR
X_U2_U35         U2_OV U2_OVD delay PARAMS: T=500
X_U2_U216         U2_TRES ENCIRD2 U2_N8031828 AND
V_U2_V90         U2_EN_VIN_TONEXT GND 1
X_U2_U240         U2_NCL U2_N8028596 INVERTER
X_U2_U274         ENCIRD2 U2_DRVOFF INVERTER
X_U2_U314         U2_HIDRIVE_NON_DELAYED U2_N16078343 U2_N16078511 AND
X_U2_U292         U2_OCM U2_N15494388 U2_TBLNKB ENCIRD2 NAND3_PS PARAMS: VHI=1
+  VLO=0 VTHRESH=500E-3 TPLH=1E-9 TPHL=1E-9 TR=1E-9 TF=1E-9
X_U2_U306         U2_ON U2_N16072501 INVERTER
X_U2_U255         U2_ZC U2_N15864690 U2_N15864586 OR
X_U2_U257         U2_N8028448 U2_LBB U2_LBB U2_N8028342 NAND3_PS PARAMS: VHI=1
+  VLO=0 VTHRESH=500E-3 TPLH=1E-9 TPHL=1E-9 TR=1E-9 TF=1E-9
C_U2_C7         U2_TON U2_N15791614  6p IC=0 TC=0,0 
X_U2_S5    U2_DRH1 GND VBST2 DRVH2 DCAP_ch2_U2_S5 
X_U2_U142         U2_ONSET U2_OVPX U2_N8028342 U2_OCL U2_N8028310 OR4_PS
+  PARAMS: VHI=1 VLO=0 VTHRESH=500E-3 TPLH=1E-9 TPHL=1E-9 TR=1E-9 TF=1E-9
E_U2_E8         U2_N15768842 GND SW2 GND 1
X_U2_U246         U2_N8028358 U2_TBLNKB INVERTER
C_U2_C11         GND U2_ON1_BAR_DELAY  0.7p IC=0 TC=0,0 
E_U2_ABM19         U2_LOWDRIVE_MUX 0 VALUE { if( V(U2_OVP)>0.5,  
+ V(U2_LOWRIVE_LATCH),  
+ V(U2_LOWDRIVE) )  }
X_U2_U302         U2_DRVH_EVENT U2_QRMP U2_N161369410 MONOPOS_PS PARAMS: PW=2n
X_U2_U191         U2_N8032008 U2_N8031306 BUFFER_PS PARAMS: VHI=1 VLO=0
+  VTHRESH=500E-3 TPLH=2E-9 TPHL=20n TR=1E-9 TF=1E-9
X_U2_U250         U2_OVP U2_N15860612 INVERTER
R_U2_R33         U2_VOS U2_N15768842  800k TC=0,0 
E_U2_ABM42         U2_OOA 0 VALUE { if(V(GND) >1.5 & V(GND) <5.5 &  
+ V(V5INOK) >0.5,1,0)   }
G_U2_ABMII1         V5FILT CS2 VALUE { if(V(ENCIRD2) >0.5,10u,0)    }
X_U2_U296         U2_BLNKM U2_TBLNKB U2_N8031784 NAND2_PS PARAMS: VHI=1 VLO=0
+  VTHRESH=500E-3 TPLH=1E-9 TPHL=1E-9 TR=1E-9 TF=1E-9
X_U2_U18         U2_N16078511 U2_INDELAYED2 d_d2 PARAMS:
X_U2_U308         U2_OVP U2_LOOPB U2_LOOP_RAW OR
X_U2_U190         U2_SHOTIN U2_N15870546 INV_PS PARAMS: VHI=1 VLO=0
+  VTHRESH=500E-3 TPLH=20n TPHL=20n TR=1E-9 TF=1E-9
C_U2_C10         GND U2_RMP  4p IC=0 TC=0,0 
X_U2_U270         U2_N8029732 U2_N161361132 U2_N8025810 NOR2
E_U2_ABM21         U2_HYSTVAL 0 VALUE { V(U2_V2P0) * 0    }
X_U2_U251         U2_LUPB U2_LUPB U2_N161363571 OR
E_U2_ABM46         U2_RAMP 0 VALUE { if(V(ENCIRD2)>0.5,  
+ LIMIT((V(U2_RMP)-0.01),-10m,10m),0)   }
X_U2_U281         U2_DRVH_EVENT U2_N8031306 U2_DRVHPREBIAS AND
X_U2_U49         U2_N16084956 U2_N16084940 U2_NOCL_LATCH U2_N161365030
+  srnandlatchshp_basic PARAMS:
G_U2_ABMII4         V5FILT U2_RMP VALUE { if(V(ENCIRD2) > 0.5, 12n , 0)    }
X_U2_U17         VREG5 VBST2 d_d2 PARAMS:
X_U2_U248         U2_HIREADY U2_N161368492 INVERTER
X_U2_U288         U2_DRL1 U2_N8029506 INVERTER
X_U2_U261         U2_ZC U2_N8024896 U2_N8024896 U2_ENLOW2 NAND3_PS PARAMS:
+  VHI=1 VLO=0 VTHRESH=500E-3 TPLH=1E-9 TPHL=1E-9 TR=1E-9 TF=1E-9
X_U2_U271         U2_DRVHPREBIAS U2_N161368492 U2_ENLOW1 NOR2
X_U2_U269         U2_LOWREADY U2_ENLOW1 U2_ONB U2_ENLOW2 NAND3_PS PARAMS: VHI=1
+  VLO=0 VTHRESH=500E-3 TPLH=1E-9 TPHL=1E-9 TR=1E-9 TF=1E-9
X_U2_U286         U2_DRH1 U2_N8029314 INVERTER
R_U2_R37         GND U2_N15791614  10k TC=0,0 
E_U2_ABM60         U2_LOW_C 0 VALUE { if(V(VFB2)>1.85,1,0)    }
E_U2_ABM35         U2_OVP 0 VALUE { if( V(U2_OVLATCH)> 0.5 &  
+ V(ENCIRD2)>0.5,1,0)   }
C_U2_C9         GND U2_N15670337  3p IC=0 TC=0,0 
X_U2_S14    U2_DQOS GND U2_N15791614 GND DCAP_ch2_U2_S14 
X_U2_U305         U2_N16072657 U2_ON1 U2_ON1_BAR_DELAY U2_N16072695 NAND3_PS
+  PARAMS: VHI=1 VLO=0 VTHRESH=500E-3 TPLH=1E-9 TPHL=1E-9 TR=1E-9 TF=1E-9
C_U2_C5         GND U2_LLAVG  3p IC=0 TC=0,0 
X_U2_U280         U2_LOWDRIVE U2_N161354171 INVERTER
X_U2_U247         U2_LOWREADY U2_N161361132 INVERTER
X_U2_U265         U2_ON U2_ONSET U2_ONSET U2_N8024982 NAND3_PS PARAMS: VHI=1
+  VLO=0 VTHRESH=500E-3 TPLH=1E-9 TPHL=1E-9 TR=1E-9 TF=1E-9
X_U2_U272         U2_LOWREADY U2_SSENDSET U2_UVP U2_N15779287 NOR3
X_U2_U311         U2_DRH1 U2_N16072695 INVERTER
E_U2_ABM8         U2_MODECHECK 0 VALUE { if( V(U2_N16061205)>0.5,  
+ -V(U2_OCLTHR),  
+ V(GND) )  }
E_U2_ABM14         U2_N15131182 0 VALUE { if( V(DRVL2)>2.5 & V(SW2) <0.5,  
+ V(SW2),  
+ V(GND) )  }
X_U2_U14         CS2 V5FILT d_d1 PARAMS:
X_U2_U188         U2_N8028310 U2_N8028358 BUFFER_PS PARAMS: VHI=1 VLO=0
+  VTHRESH=500E-3 TPLH=2E-9 TPHL=10E-9 TR=1E-9 TF=1E-9
X_U2_U279         U2_HIDRIVE U2_N161364092 INVERTER
R_U2_R23         GND PGOOD2  1e6  
R_U2_R13         GND U2_N15397273  1Meg  
R_U2_R12         GND U2_N8029192  1Meg  
R_R11         GND N161991910  1Meg  
X_S1    PGEN GND PGOOD GND TPS51275_TRANS_S1 
X_U48         N15656866 N15656792 N15656952 N161991910 srnandlatchshp_basic
+  PARAMS:
C_C11         GND VREF  1u  
E_ABM1         TODELAY 0 VALUE { if( V(PGOOD1)>0.5 &  
+ V(PGOOD2) >0.5,1,0)   }
X_U4_U14         U4_N13787296 V5FILT d_d1 PARAMS:
E_U4_ABM4         SS1 0 VALUE { if(V(U4_N13787296)>2, 2,V(U4_N13787296))    }
E_U4_ABM6         ENUVPG1 0 VALUE { if(V(U4_N13787296)>3.375, 1,0)    }
R_U4_R18         VREG5 V5FILT  3.32  
C_U4_C11         GND V5FILT  1u IC=0 
E_U4_ABM7         ENUVPG2 0 VALUE { if(V(U4_N15130899)>3.375, 1,0)    }
G_U4_ABMII1         V5FILT U4_N13787296 VALUE { if(V(ENCIRD1) >0.5, {2.5u +
+  MODE* 7.5u},0)    }
E_U4_ABM5         SS2 0 VALUE { if(V(U4_N15130899)>2, 2,V(U4_N15130899))    }
E_U4_ABM3         SSEND2 0 VALUE { if(V(U4_N15130899)>2, 1.95,0)    }
E_U4_ABM2         SSEND1 0 VALUE { if(V(U4_N13787296)>2, 1,0)    }
X_U4_U15          VREG5 V5INOK COMP_HYS2 PARAMS:  TH=4.18 HYS=.4
E_U4_ABM53         U4_ENABLE1 0 VALUE { if( V(V5INOK)>0.5 &  
+ V(EN1)>1.6,1,0)   }
R_U4_R23         GND SSEND2  1Meg  
R_U4_R22         GND SSEND1  1Meg  
X_U4_U10         U4_ENABLE2 ENCIRD2 delay PARAMS: T=130000
C_U4_C3         GND U4_N13787296  1n IC=0 
X_U4_U219         ENCIRD1 U4_N137873121 INVERTER
G_U4_ABMII2         V5FILT U4_N15130899 VALUE { if(V(ENCIRD2) >0.5, {2.5u +
+  MODE*7.5u},0)    }
X_U4_U8         U4_ENABLE1 ENCIRD1 delay PARAMS: T=130000
C_U4_C4         GND U4_N15130899  1n IC=0 
X_U4_U220         ENCIRD2 U4_N151309131 INVERTER
X_U4_S11    U4_N137873121 GND U4_N13787296 GND SS_SEL_U4_S11 
E_U4_ABM62         U4_ENABLE2 0 VALUE { if( V(V5INOK)>0.5 &  
+ V(EN2)>1.6,1,0)   }
X_U4_U16         U4_N15130899 V5FILT d_d1 PARAMS:
X_U4_S12    U4_N151309131 GND U4_N15130899 GND SS_SEL_U4_S12 
X_U190         TODELAY DELAY BUFFER_PS PARAMS: VHI=1 VLO=0 VTHRESH=500E-3 TPLH=
+ {(1- MODE*0.9) *0.7m} TPHL=10u TR=1E-9 TF=1E-9
V_V7         N15159302 GND  
+PWL 0 0 .01m 0 .011m 5 
X_U1_U313         U1_TEST U1_N17677908 U1_N17684805 NAND2_PS PARAMS: VHI=1
+  VLO=0 VTHRESH=500E-3 TPLH=1E-9 TPHL=1E-9 TR=1E-9 TF=1E-9
E_U1_ABM34         U1_UVP 0 VALUE { if( V(U1_UVLATCH)> 0.5 &  
+ V(ENUVPG1)>0.5,1,0)   }
X_U1_U264         U1_N8024778 U1_SSENDSET U1_N8024792 SSEND1 NAND3_PS PARAMS:
+  VHI=1 VLO=0 VTHRESH=500E-3 TPLH=1E-9 TPHL=1E-9 TR=1E-9 TF=1E-9
X_U1_U240         U1_NCL U1_N8028596 INVERTER
X_U1_U299         U1_N16999020 U1_TRES U1_TRES U1_N16999013 NAND3_PS PARAMS:
+  VHI=1 VLO=0 VTHRESH=500E-3 TPLH=1E-9 TPHL=1E-9 TR=1E-9 TF=1E-9
E_U1_ABM18         U1_NOCL_CHECK 0 VALUE { if( V(U1_LLO)  
+ >V(U1_N17228765) ,0,1)   }
X_U1_u20_U241         U1_u20_N13639852 U1_u20_N13640653 INVERTER
X_U1_u20_U254         U1_ON1 U1_SHOTIN U1_u20_N13636996 AND
X_U1_u20_U245         U1_u20_N13639852 U1_SHOTIN U1_SHOT_OUT OR
X_U1_u20_U247         U1_u20_N13636996 U1_u20_CLKD INVERTER
X_U1_u20_U253         U1_u20_N13634238 U1_C_IN U1_u20_N13634611 AND
R_U1_u20_R28         U1_u20_N136958671 GND  1e8 TC=0,0 
X_U1_u20_U259         U1_u20_N136958671 U1_u20_N13670242 U1_u20_CLKD
+  U1_LOOP_RAW U1_u20_N13681583 GND dffsr_rhpbasic1v PARAMS:
X_U1_u20_U244         U1_u20_Q0 U1_u20_Q1 U1_u20_N13639852 OR
X_U1_u20_u2_S11    U1_u20_N13636996 GND U1_u20_u2_N8032860 U1_u20_u2_N8035344
+  SDC_U1_u20_u2_S11 
X_U1_u20_u2_U245         U1_u20_u2_N8035344 U1_u20_Q0 INVERTER
X_U1_u20_u2_U242         U1_u20_N13636996 U1_u20_u2_CLKZ INVERTER
X_U1_u20_u2_U244         U1_u20_u2_N8033152 U1_u20_CLRZ U1_u20_u2_N8032860
+  NAND2_BASIC
R_U1_u20_u2_R31         GND U1_u20_u2_N8032072  1e11 TC=0,0 
X_U1_u20_u2_S12    U1_u20_u2_CLKZ GND U1_u20_u2_N8037538 U1_u20_u2_N8035344
+  SDC_U1_u20_u2_S12 
X_U1_u20_u2_U248         U1_u20_u2_N8035851 U1_u20_CLRZ U1_u20_u2_N8037538
+  NAND2_BASIC
R_U1_u20_u2_R29         GND U1_u20_u2_N8032860  1e11 TC=0,0 
X_U1_u20_u2_U246         U1_u20_u2_N8035344 U1_u20_u2_N8035851 INVERTER
X_U1_u20_u2_S9    U1_u20_u2_CLKZ GND U1_u20_u2_N8032072 U1_u20_u2_N8032363
+  SDC_U1_u20_u2_S9 
X_U1_u20_u2_U249         U1_u20_CO U1_u20_u2_N13650456 INVERTER
X_U1_u20_u2_S10    U1_u20_N13636996 GND U1_u20_u2_N8032363 U1_u20_u2_N8032860
+  SDC_U1_u20_u2_S10 
X_U1_u20_u2_U240         U1_u20_N13640653 U1_u20_u2_SZ INVERTER
X_U1_u20_u2_U243         U1_u20_u2_N8032363 U1_u20_u2_N8033152 INVERTER
X_U1_u20_u2_U250         U1_u20_N13641400 U1_u20_u2_N13650464 INVERTER
R_U1_u20_u2_R28         GND U1_u20_u2_N8032363  1e11 TC=0,0 
E_U1_u20_u2_ABM1         U1_u20_u2_N8032072 0 VALUE { if ( V(U1_u20_N13640653)>
+  0.5,  
+ V(U1_u20_u2_N13650456),  
+ V(U1_u20_u2_N13650464) )   }
X_U1_u20_u2_U247         U1_u20_u2_N8035851 U1_u20_N13639199 INVERTER
X_U1_u20_U255         U1_u20_N13670242 U1_N17048203 U1_u20_CLRZ AND
X_U1_u20_u3_S11    U1_u20_N13636996 GND U1_u20_u3_N8032860 U1_u20_u3_N8035344
+  SDC_U1_u20_u3_S11 
X_U1_u20_u3_U245         U1_u20_u3_N8035344 U1_u20_Q1 INVERTER
X_U1_u20_u3_U242         U1_u20_N13636996 U1_u20_u3_CLKZ INVERTER
X_U1_u20_u3_U244         U1_u20_u3_N8033152 U1_u20_CLRZ U1_u20_u3_N8032860
+  NAND2_BASIC
R_U1_u20_u3_R31         GND U1_u20_u3_N8032072  1e11 TC=0,0 
X_U1_u20_u3_S12    U1_u20_u3_CLKZ GND U1_u20_u3_N8037538 U1_u20_u3_N8035344
+  SDC_U1_u20_u3_S12 
X_U1_u20_u3_U248         U1_u20_u3_N8035851 U1_u20_CLRZ U1_u20_u3_N8037538
+  NAND2_BASIC
R_U1_u20_u3_R29         GND U1_u20_u3_N8032860  1e11 TC=0,0 
X_U1_u20_u3_U246         U1_u20_u3_N8035344 U1_u20_u3_N8035851 INVERTER
X_U1_u20_u3_S9    U1_u20_u3_CLKZ GND U1_u20_u3_N8032072 U1_u20_u3_N8032363
+  SDC_U1_u20_u3_S9 
X_U1_u20_u3_U249         U1_u20_S U1_u20_u3_N13650456 INVERTER
X_U1_u20_u3_S10    U1_u20_N13636996 GND U1_u20_u3_N8032363 U1_u20_u3_N8032860
+  SDC_U1_u20_u3_S10 
X_U1_u20_u3_U240         U1_u20_N13640653 U1_u20_u3_SZ INVERTER
X_U1_u20_u3_U243         U1_u20_u3_N8032363 U1_u20_u3_N8033152 INVERTER
X_U1_u20_u3_U250         U1_u20_N13639471 U1_u20_u3_N13650464 INVERTER
R_U1_u20_u3_R28         GND U1_u20_u3_N8032363  1e11 TC=0,0 
E_U1_u20_u3_ABM1         U1_u20_u3_N8032072 0 VALUE { if ( V(U1_u20_N13640653)>
+  0.5,  
+ V(U1_u20_u3_N13650456),  
+ V(U1_u20_u3_N13650464) )   }
X_U1_u20_u3_U247         U1_u20_u3_N8035851 U1_u20_N13641212 INVERTER
X_U1_u20_U248         U1_ON1 U1_u20_N13681583 INVERTER
X_U1_u20_U5         U1_u20_N13639199 U1_u20_N13641212 U1_u20_N13641400
+  NOR2_BASIC
X_U1_u20_U250         U1_OCM U1_B_IN U1_u20_N13634634 AND
X_U1_u20_U251         U1_OCM U1_B_IN U1_u20_N13634238 XOR2_BASIC
X_U1_u20_U243         U1_u20_N13634611 U1_u20_N13634634 U1_u20_CO OR
X_U1_u20_U252         U1_u20_N13634238 U1_C_IN U1_u20_S XOR2_BASIC
X_U1_u20_U4         U1_u20_N13639199 U1_u20_Q1 U1_u20_N13639471 NOR2_BASIC
X_U1_U192         DRVL1 U1_N8029732 BUFFER_PS PARAMS: VHI=1 VLO=0 VTHRESH=2.5
+  TPLH=2E-9 TPHL=2E-9 TR=1E-9 TF=1E-9
X_U1_U231         U1_OCM_IN N17103716 U1_LOWREADY U1_OCM U1_ONE_VOLT
+  U1_ONE_VOLT DFF_BASIC
X_U1_U13          U1_P675VREF VFB1 U1_HYSTVAL U1_UV COMP_HYS
X_U1_U282         U1_HIDRIVE U1_N8030314 U1_N8031562 AND
X_U1_U317         U1_N17677908 U1_ONB U1_TEST U1_OVP NAND3_PS PARAMS: VHI=1
+  VLO=0 VTHRESH=500E-3 TPLH=1E-9 TPHL=1E-9 TR=1E-9 TF=1E-9
X_U1_S12    U1_QRMP GND U1_RMP GND DCAP_ch1_U1_S12 
R_U1_R35         U1_N15180712 U1_N15805176  240k TC=0,0 
X_U1_U18         U1_N17629694 U1_INDELAYED2 d_d2 PARAMS:
X_U1_U266         U1_N8024982 U1_ON U1_SHOT_OUT ENCIRD1 NAND3_PS PARAMS: VHI=1
+  VLO=0 VTHRESH=500E-3 TPLH=1E-9 TPHL=1E-9 TR=1E-9 TF=1E-9
R_U1_R9         U1_LLO U1_N15131182  100  
E_U1_E1         GND U1_OCLTHR GND CS1 -.125
X_U1_S15    U1_DQOS GND U1_TON U1_N15795052 DCAP_ch1_U1_S15 
X_U1_U300         U1_N16999013 U1_N16999020 U1_SHOTIN ENCIRD1 NAND3_PS PARAMS:
+  VHI=1 VLO=0 VTHRESH=500E-3 TPLH=1E-9 TPHL=1E-9 TR=1E-9 TF=1E-9
E_U1_ABM19         U1_LOWDRIVE_MUX 0 VALUE { if( V(U1_OVP)>0.5,  
+ V(U1_LOWRIVE_LATCH),  
+ V(U1_LOWDRIVE) )  }
X_U1_S7    U1_DRL2 GND DRVL1 GND DCAP_ch1_U1_S7 
X_U1_U246         U1_N8028358 U1_TBLNKB INVERTER
V_U1_V92         U1_ONE_VOLT GND 1