*$
* TPS56628
*****************************************************************************
* (C) Copyright 2013 Texas Instruments Incorporated. All rights reserved.
*****************************************************************************
** This model is designed as an aid for customers of Texas Instruments.
** TI and its licensors and suppliers make no warranties, either expressed
** or implied, with respect to this model, including the warranties of
** merchantability or fitness for a particular purpose. The model is
** provided solely on an "as is" basis. The entire risk as to its quality
** and performance is with the customer
*****************************************************************************
*
* Released by: WEBENCH Design Center, Texas Instruments Inc.
* Part: TPS56628
* Date: 26SEP2013
* Model Type: Transient 
* Simulator: PSpice
* Simulator Version: 16.2
* EVM Order Number: TPS56628EVM-534
* EVM Users Guide: SLVU988
* Datasheet: SLVSC94
*
* Model Version: Final 1.00
*
*****************************************************************************
*
* Updates:
*
* Final 1.00
* Release to web
*
******************************************************************************
* Model Usage Notes:
* 
* 1. Input and quiescent current of the part have not been modeled.
* 2. Temperature effects have not been modeled.
* 3. Noise has not been modeled.
*
*****************************************************************************
* source TPS56628_TRANS
.SUBCKT TPS56628_TRANS EN VFB VREG5 PG GND SW VBST VIN PwPd PARAMS: MODE=1
Rpwpd PwPd GND .001m
* source TPS56428_TRANS
V_TPS56628_TRANS_u6_V5         TPS56628_TRANS_u6_N112753573 0 1
X_TPS56628_TRANS_u6_U15          VREG5 TPS56628_TRANS_u6_V5INOK COMP_HYS2
+  PARAMS:  TH=3.75 HYS=.32
X_TPS56628_TRANS_u6_S1    TPS56628_TRANS_u6_ENVREG5 GND VREG5 GND
+  LDO_TPS56628_TRANS_u6_S1 
V_TPS56628_TRANS_u6_V1         TPS56628_TRANS_u6_N11275257 0 1.6
G_TPS56628_TRANS_u6_G2         TPS56628_TRANS_u6_REG5 VREG5 TABLE {
+  V(TPS56628_TRANS_u6_REG5, VREG5) } 
+ ( (-10,-12m)(-1m,-10m)(0,0)(1m,60m)(10,70m) )
E_TPS56628_TRANS_u6_ABM19         TPS56628_TRANS_ENCIR 0 VALUE { if(
+  V(TPS56628_TRANS_u6_ENSW)>0.5  
+ & V(TPS56628_TRANS_u6_V5INOK)>0.5,1,0)   }
R_TPS56628_TRANS_u6_R4         TPS56628_TRANS_u6_REG5 TPS56628_TRANS_u6_ENVREG5
+   1  
X_TPS56628_TRANS_u6_U7         EN TPS56628_TRANS_u6_N11275257
+  TPS56628_TRANS_u6_N112753573 TPS56628_TRANS_u6_ENSW COMPHYS_BASIC_GEN PARAMS:
+  VDD=1 VSS=0 VTHRESH=0.5
C_TPS56628_TRANS_u6_C5         GND TPS56628_TRANS_u6_REG5  100p  
E_TPS56628_TRANS_u6_ABM20         TPS56628_TRANS_u6_ENVREG5 0 VALUE { if(
+  V(TPS56628_TRANS_u6_ENSW)>0.5  
+ & V(VIN)>3.75,LIMIT(V(VIN),0,5.5),0)   }
C_TPS56628_TRANS_u6_C1         GND EN  1p IC=0 TC=0,0 
X_TPS56628_TRANS_U190         TPS56628_TRANS_PGOOD TPS56628_TRANS_PGOOD_DELAY
+  BUFFER_PS PARAMS: VHI=1 VLO=0 VTHRESH=500E-3 TPLH={(1- MODE*0.8) *0.8m}
+  TPHL=1u TR=1E-9 TF=1E-9
V_TPS56628_TRANS_V1         TPS56628_TRANS_N162356231 GND -250m
X_TPS56628_TRANS_U1_U12         TPS56628_TRANS_U1_UVP_DELAY_INV
+  TPS56628_TRANS_UVP_DELAY INV_PS PARAMS: VHI=1 VLO=0 VTHRESH=500E-3 TPLH=1E-9
+  TPHL=1E-9 TR=1E-9 TF=1E-9
X_TPS56628_TRANS_U1_S5    TPS56628_TRANS_U1_EN_SS GND TPS56628_TRANS_U1_SS GND
+  SOFTSTART_TPS56628_TRANS_U1_S5 
R_TPS56628_TRANS_U1_R31         GND TPS56628_TRANS_U1_SS  1E11  
E_TPS56628_TRANS_U1_ABM4         TPS56628_TRANS_U1_N14833630 0 VALUE {
+  if(V(TPS56628_TRANS_U1_SS) > 0.765, 0.765, V(TPS56628_TRANS_U1_SS))    }
X_TPS56628_TRANS_U1_U10         TPS56628_TRANS_U1_SS TPS56628_TRANS_U1_SS d_d1
+  PARAMS:
X_TPS56628_TRANS_U1_U11         TPS56628_TRANS_ENCIR
+  TPS56628_TRANS_U1_UVP_DELAY_INV TPS56628_TRANS_U1_EN_SS1 AND
X_TPS56628_TRANS_U1_U13         TPS56628_TRANS_U1_EN_SS1 TPS56628_TRANS_RESET
+  TPS56628_TRANS_U1_RESET_1 TPS56628_TRANS_U1_EN_SS MUX2_BASIC_GEN PARAMS: VDD=1
+  VSS=0 VTHRESH=0.5
X_TPS56628_TRANS_U1_U15         TPS56628_TRANS_U1_RESET_1
+  TPS56628_TRANS_U1_N15148930 INV_PS PARAMS: VHI=1 VLO=0 VTHRESH=500E-3
+  TPLH=1E-9 TPHL=1E-9 TR=1E-9 TF=1E-9
X_TPS56628_TRANS_U1_U14         TPS56628_TRANS_U1_N15148930
+  TPS56628_TRANS_RESET INV_PS PARAMS: VHI=1 VLO=0 VTHRESH=500E-3 TPLH=1E-9
+  TPHL=1E-9 TR=1E-9 TF=1E-9
X_TPS56628_TRANS_U1_S6    TPS56628_TRANS_N16232707 GND TPS56628_TRANS_U1_SS
+  TPS56628_TRANS_U1_N14825899 SOFTSTART_TPS56628_TRANS_U1_S6 
G_TPS56628_TRANS_U1_ABMII5         VREG5 TPS56628_TRANS_U1_SS VALUE {
+  if(V(TPS56628_TRANS_U1_EN_SS) > 0.5, (20u + MODE*20u), 0)    }
C_TPS56628_TRANS_U1_C1         GND TPS56628_TRANS_U1_SS  33.33n  
E_TPS56628_TRANS_U1_ABM2         TPS56628_TRANS_ENUVOP 0 VALUE {
+  if(V(TPS56628_TRANS_U1_SS)>1.020, 1,0)    }
E_TPS56628_TRANS_U1_ABM50         TPS56628_TRANS_U1_ENSS 0 VALUE { if(
+  V(TPS56628_TRANS_N16232707)<0.5 & V(TPS56628_TRANS_ENCIR)>0.5,  
+ 1,0)   }
E_TPS56628_TRANS_U1_ABM20         TPS56628_TRANS_N13136054 0 VALUE {
+  if(V(TPS56628_TRANS_U1_N14833630)>0.765, 0.765,
+  V(TPS56628_TRANS_U1_N14833630))    }
E_TPS56628_TRANS_U1_ABM5         TPS56628_TRANS_U1_N14825899 0 VALUE {
+  if(V(TPS56628_TRANS_N16232707)>0.6, 0.6,0)    }
R_TPS56628_TRANS_U1_R22         GND TPS56628_TRANS_ENUVOP  1Meg  
X_TPS56628_TRANS_U219         TPS56628_TRANS_PGOOD_DELAY TPS56628_TRANS_PGEN
+  INVERTER
C_TPS56628_TRANS_C7         SW GND  1p IC=0 TC=0,0 
X_TPS56628_TRANS_U9         TPS56628_TRANS_N162350251 VIN d_d1 PARAMS:
R_TPS56628_TRANS_R31         GND PWPD  1E11  
E_TPS56628_TRANS_U5_ABM15         TPS56628_TRANS_U5_REFEFF 0 VALUE {
+  V(TPS56628_TRANS_N13136054)  
+ + V(TPS56628_TRANS_U5_RAMP)   }
V_TPS56628_TRANS_U5_V84         TPS56628_TRANS_U5_N15426677 GND 0.84
X_TPS56628_TRANS_U5_U278         TPS56628_TRANS_U5_HI_READY
+  TPS56628_TRANS_U5_N14703778 INVERTER
C_TPS56628_TRANS_U5_C10         GND TPS56628_TRANS_U5_RMP  4p IC=0 TC=0,0 
C_TPS56628_TRANS_U5_C14         GND TPS56628_TRANS_U5_N14791687  5.4p IC=0
+  TC=0,0 
X_TPS56628_TRANS_U5_U288         TPS56628_TRANS_ENCIR
+  TPS56628_TRANS_U5_N153307452 TPS56628_TRANS_U5_LOWDRIVE AND
X_TPS56628_TRANS_U5_U239         TPS56628_TRANS_U5_LUPB TPS56628_TRANS_U5_LOOPB
+  INVERTER
X_TPS56628_TRANS_U5_U194         TPS56628_TRANS_U5_START_DEL
+  TPS56628_TRANS_N16232707 BUFFER_PS PARAMS: VHI=1 VLO=0 VTHRESH=.5 TPLH=10u
+  TPHL=1u TR=1E-9 TF=1E-9
R_TPS56628_TRANS_U5_R38         TPS56628_TRANS_U5_VIM GND  1e11 TC=0,0 
R_TPS56628_TRANS_U5_R32         TPS56628_TRANS_U5_VIM
+  TPS56628_TRANS_U5_N14705832  8k TC=0,0 
R_TPS56628_TRANS_U5_R42         TPS56628_TRANS_U5_N14988808
+  TPS56628_TRANS_U5_OCLHI  200 TC=0,0 
E_TPS56628_TRANS_U5_ABM37         TPS56628_TRANS_U5_ONS3 0 VALUE {
+  if(V(TPS56628_TRANS_VOINFO) >7,1,0)    }
X_TPS56628_TRANS_U5_U271         TPS56628_TRANS_U5_HI_DEL
+  TPS56628_TRANS_U5_N14703778 TPS56628_TRANS_U5_LOW_DELAY NOR2
X_TPS56628_TRANS_U5_S8    TPS56628_TRANS_U5_DRL2 GND TPS56628_TRANS_N13133869
+  GND DCAP_TPS56628_TRANS_U5_S8 
E_TPS56628_TRANS_U5_E8         TPS56628_TRANS_U5_N14705832 GND VFB GND 1
E_TPS56628_TRANS_U5_E7         TPS56628_TRANS_U5_RMPIN GND
+  TPS56628_TRANS_U5_RMP GND 1
X_TPS56628_TRANS_U5_U312         TPS56628_TRANS_U5_N14704040
+  TPS56628_TRANS_U5_DRH2 INV_PS PARAMS: VHI=1 VLO=0 VTHRESH=500E-3 TPLH=1E-9
+  TPHL=1E-9 TR=1E-9 TF=1E-9
E_TPS56628_TRANS_U5_ABM3         TPS56628_TRANS_U5_DRVHPREBIAS 0 VALUE {
+  if(V(TPS56628_TRANS_N13133969)>5,1,0)    }
E_TPS56628_TRANS_U5_E10         TPS56628_TRANS_VOINFO GND
+  TPS56628_TRANS_U5_N14738087 GND 1
X_TPS56628_TRANS_U5_U300         TPS56628_TRANS_U5_ONG
+  TPS56628_TRANS_U5_N153319331 INV_PS PARAMS: VHI=1 VLO=0 VTHRESH=500E-3
+  TPLH=1E-9 TPHL=1E-9 TR=1E-9 TF=1E-9
X_TPS56628_TRANS_U5_U250         TPS56628_TRANS_UVP_DELAY
+  TPS56628_TRANS_U5_N153300531 INVERTER
X_TPS56628_TRANS_U5_U216         TPS56628_TRANS_U5_N14705078
+  TPS56628_TRANS_ENCIR TPS56628_TRANS_U5_N14705656 AND
X_TPS56628_TRANS_U5_U266         TPS56628_TRANS_U5_N14704342
+  TPS56628_TRANS_U5_ON TPS56628_TRANS_U5_TOS TPS56628_TRANS_ENCIR NAND3_PS
+  PARAMS: VHI=1 VLO=0 VTHRESH=500E-3 TPLH=1E-9 TPHL=1E-9 TR=1E-9 TF=1E-9
X_TPS56628_TRANS_U5_U283         TPS56628_TRANS_U5_N14704648
+  TPS56628_TRANS_U5_N153313211 TPS56628_TRANS_U5_DRH2 AND
X_TPS56628_TRANS_U5_U274         TPS56628_TRANS_ENCIR TPS56628_TRANS_U5_DRVOFF
+  INVERTER
R_TPS56628_TRANS_U5_R36         TPS56628_TRANS_U5_N14705626 GND  300k TC=0,0 
G_TPS56628_TRANS_U5_ABM2I2         TPS56628_TRANS_U5_TON GND VALUE {
+  if(V(TPS56628_TRANS_U5_DQOS) >.75, V(TPS56628_TRANS_U5_TON)/200,0)    }
X_TPS56628_TRANS_U5_U249         TPS56628_TRANS_U5_ON TPS56628_TRANS_U5_ONB
+  INVERTER
R_TPS56628_TRANS_U5_R7         TPS56628_TRANS_U5_N14738087
+  TPS56628_TRANS_U5_N14738075  1800k TC=0,0 
X_TPS56628_TRANS_U5_U281         TPS56628_TRANS_U5_DRVHPREBIAS
+  TPS56628_TRANS_U5_N14705142 TPS56628_TRANS_U5_HI_DEL AND
X_TPS56628_TRANS_U5_U294         TPS56628_TRANS_U5_HI_READY
+  TPS56628_TRANS_U5_ON TPS56628_TRANS_U5_ON1 NAND2_PS PARAMS: VHI=1 VLO=0
+  VTHRESH=500E-3 TPLH=1E-9 TPHL=1E-9 TR=1E-9 TF=1E-9
X_TPS56628_TRANS_U5_U576         TPS56628_TRANS_U5_DRVHPREBIAS
+  TPS56628_TRANS_U5_N14706850 TPS56628_TRANS_U5_N14706924
+  TPS56628_TRANS_U5_PREBIAS srlatchrhp_basic_gen PARAMS: VDD=1 VSS=0 VTHRESH=.5
C_TPS56628_TRANS_U5_C6         TPS56628_TRANS_U5_N14705578 GND  0.8p IC=0
+  TC=0,0 
E_TPS56628_TRANS_U5_ABM46         TPS56628_TRANS_U5_RAMP 0 VALUE {
+  if(V(TPS56628_TRANS_ENCIR)>0.5,   
+ LIMIT((V(TPS56628_TRANS_U5_RMPIN)-0.01),-10m,5m),0)   }
X_TPS56628_TRANS_U5_S5    TPS56628_TRANS_U5_DRH1 GND VBST
+  TPS56628_TRANS_N13133969 DCAP_TPS56628_TRANS_U5_S5 
C_TPS56628_TRANS_U5_C11         GND TPS56628_TRANS_U5_TIMEOCL  3p IC=0 TC=0,0 
X_TPS56628_TRANS_U5_U262         TPS56628_TRANS_U5_ZC
+  TPS56628_TRANS_U5_N14707232 TPS56628_TRANS_U5_TBLNKB TPS56628_TRANS_ENCIR
+  NAND3_PS PARAMS: VHI=1 VLO=0 VTHRESH=500E-3 TPLH=1E-9 TPHL=1E-9 TR=1E-9
+  TF=1E-9
X_TPS56628_TRANS_U5_U193         TPS56628_TRANS_U5_HI_READY
+  TPS56628_TRANS_U5_DQOS BUFFER_PS PARAMS: VHI=1 VLO=0 VTHRESH=500E-3 TPLH=2E-9
+  TPHL=2E-9 TR=1E-9 TF=1E-9
R_TPS56628_TRANS_U5_R29         GND TPS56628_TRANS_U5_RMP  1e8 TC=0,0 
X_TPS56628_TRANS_U5_U247         TPS56628_TRANS_U5_LOW_READY
+  TPS56628_TRANS_U5_N153300931 INVERTER
R_TPS56628_TRANS_U5_R40         GND TPS56628_TRANS_U5_N14706850  1Meg  
X_TPS56628_TRANS_U5_U257         TPS56628_TRANS_U5_N14703724
+  TPS56628_TRANS_U5_N14703638 TPS56628_TRANS_U5_N14703638 TPS56628_TRANS_U5_ONS1
+  NAND3_PS PARAMS: VHI=1 VLO=0 VTHRESH=500E-3 TPLH=1E-9 TPHL=1E-9 TR=1E-9
+  TF=1E-9
X_TPS56628_TRANS_U5_U295         TPS56628_TRANS_U5_N14703510
+  TPS56628_TRANS_U5_HI_DEL TPS56628_TRANS_U5_HIDRIVE NAND2_PS PARAMS: VHI=1
+  VLO=0 VTHRESH=500E-3 TPLH=1E-9 TPHL=1E-9 TR=1E-9 TF=1E-9
R_TPS56628_TRANS_U5_R23         GND TPS56628_TRANS_U5_TON  10Meg TC=0,0 
R_TPS56628_TRANS_U5_R10         TPS56628_TRANS_U5_N14791687
+  TPS56628_TRANS_U5_SWIN  572k TC=0,0 
R_TPS56628_TRANS_U5_R27         SW TPS56628_TRANS_U5_INT  670k TC=0,0 
X_TPS56628_TRANS_U5_U188         TPS56628_TRANS_U5_TBLNK
+  TPS56628_TRANS_U5_N153298611 BUFFER_PS PARAMS: VHI=1 VLO=0 VTHRESH=500E-3
+  TPLH=10E-9 TPHL=30E-9 TR=1E-9 TF=1E-9
R_TPS56628_TRANS_U5_R31         GND TPS56628_TRANS_U5_QRMP  1e8 TC=0,0 
C_TPS56628_TRANS_U5_C4         GND TPS56628_TRANS_U5_TON  16p IC=0 TC=0,0 
E_TPS56628_TRANS_U5_ABM11         TPS56628_TRANS_U5_N14988808 0 VALUE { if(
+  V(TPS56628_TRANS_U5_OCLTHR)  
+ >V(TPS56628_TRANS_LLC) ,1,0)   }
X_TPS56628_TRANS_U5_U279         TPS56628_TRANS_U5_HIDRIVE
+  TPS56628_TRANS_U5_N153313211 INVERTER
R_TPS56628_TRANS_U5_R33         TPS56628_TRANS_VOINFO
+  TPS56628_TRANS_U5_N14705578  92k TC=0,0 
X_TPS56628_TRANS_U5_U242         TPS56628_TRANS_U5_BLNKM
+  TPS56628_TRANS_U5_OCLHI TPS56628_TRANS_U5_OCLDIS OR
X_TPS56628_TRANS_U5_U263         TPS56628_TRANS_U5_SSENDSET
+  TPS56628_TRANS_ENCIR TPS56628_TRANS_ENCIR TPS56628_TRANS_U5_N14703488 NAND3_PS
+  PARAMS: VHI=1 VLO=0 VTHRESH=500E-3 TPLH=1E-9 TPHL=1E-9 TR=1E-9 TF=1E-9
X_TPS56628_TRANS_U5_U260         TPS56628_TRANS_U5_ONS2
+  TPS56628_TRANS_U5_N14703428 TPS56628_TRANS_U5_TBLNKB TPS56628_TRANS_ENCIR
+  NAND3_PS PARAMS: VHI=1 VLO=0 VTHRESH=500E-3 TPLH=1E-9 TPHL=1E-9 TR=1E-9
+  TF=1E-9
X_TPS56628_TRANS_U5_U313         TPS56628_TRANS_U5_N14704296
+  TPS56628_TRANS_U5_DRL2 INV_PS PARAMS: VHI=1 VLO=0 VTHRESH=500E-3 TPLH=1E-9
+  TPHL=1E-9 TR=1E-9 TF=1E-9
X_TPS56628_TRANS_U5_U268         TPS56628_TRANS_U5_N14705168
+  TPS56628_TRANS_ENCIR TPS56628_TRANS_U5_ONG TPS56628_TRANS_U5_TBLNK NAND3_PS
+  PARAMS: VHI=1 VLO=0 VTHRESH=500E-3 TPLH=1E-9 TPHL=1E-9 TR=1E-9 TF=1E-9
R_TPS56628_TRANS_U5_R37         GND TPS56628_TRANS_U5_N14706924  1Meg  
X_TPS56628_TRANS_U5_U6         TPS56628_TRANS_U5_N15432636 VFB
+  TPS56628_TRANS_U5_N15348605 COMP PARAMS: VHYS=0.03
X_TPS56628_TRANS_U5_U282         TPS56628_TRANS_U5_HIDRIVE
+  TPS56628_TRANS_U5_N14704040 TPS56628_TRANS_U5_DRH1 AND
X_TPS56628_TRANS_U5_S7    TPS56628_TRANS_U5_DRL1 GND VREG5
+  TPS56628_TRANS_N13133869 DCAP_TPS56628_TRANS_U5_S7 
X_TPS56628_TRANS_U5_U142         TPS56628_TRANS_U5_ONSET TPS56628_TRANS_U5_ONS3
+  TPS56628_TRANS_U5_ONS1 TPS56628_TRANS_U5_ONS2 TPS56628_TRANS_U5_TBLNK OR4_PS
+  PARAMS: VHI=1 VLO=0 VTHRESH=500E-3 TPLH=1E-9 TPHL=1E-9 TR=1E-9 TF=1E-9
X_TPS56628_TRANS_U5_U192         TPS56628_TRANS_N13133869
+  TPS56628_TRANS_U5_N14704200 BUFFER_PS PARAMS: VHI=1 VLO=0 VTHRESH=2.5 TPLH=2n
+  TPHL=5E-9 TR=1E-9 TF=1E-9
E_TPS56628_TRANS_U5_ABM35         TPS56628_TRANS_U5_OCLTHR 0 VALUE {
+  if(V(TPS56628_TRANS_N16232707)<0.5, -0.2044,-0.18)    }
X_TPS56628_TRANS_U5_U302         TPS56628_TRANS_U5_DRVHPREBIAS
+  TPS56628_TRANS_U5_QRMP TPS56628_TRANS_U5_N153313452 MONOPOS_PS PARAMS: PW=10n
X_TPS56628_TRANS_U5_U277         TPS56628_TRANS_U5_ZC
+  TPS56628_TRANS_U5_N14705922 TPS56628_TRANS_U5_N14705582 OR
R_TPS56628_TRANS_U5_R9         TPS56628_TRANS_U5_TIMEOCL
+  TPS56628_TRANS_U5_N14786773  1Meg TC=0,0 
C_TPS56628_TRANS_U5_C13         TPS56628_TRANS_U5_OCLHI GND  10p IC=0 TC=0,0 
C_TPS56628_TRANS_U5_C9         GND TPS56628_TRANS_U5_N14738087  4.6p IC=0
+  TC=0,0 
R_TPS56628_TRANS_U5_R30         GND TPS56628_TRANS_U5_N153313452  1e8 TC=0,0 
X_TPS56628_TRANS_U5_U285         TPS56628_TRANS_U5_N14704742
+  TPS56628_TRANS_U5_N153304051 TPS56628_TRANS_U5_DRL2 AND
X_TPS56628_TRANS_U5_U264         TPS56628_TRANS_U5_N14703488
+  TPS56628_TRANS_U5_SSENDSET TPS56628_TRANS_U5_N14703510 TPS56628_TRANS_U5_SSEND
+  NAND3_PS PARAMS: VHI=1 VLO=0 VTHRESH=500E-3 TPLH=1E-9 TPHL=1E-9 TR=1E-9
+  TF=1E-9
X_TPS56628_TRANS_U5_U280         TPS56628_TRANS_U5_LOWDRIVE
+  TPS56628_TRANS_U5_N153304051 INVERTER
X_TPS56628_TRANS_U5_S6    TPS56628_TRANS_U5_DRH2 GND TPS56628_TRANS_N13133969
+  SW DCAP_TPS56628_TRANS_U5_S6 
G_TPS56628_TRANS_U5_ABMII1         VREG5 TPS56628_TRANS_U5_RMP VALUE {
+  if(V(TPS56628_TRANS_ENCIR)>0.5, 28n,0)    }
R_TPS56628_TRANS_U5_R34         TPS56628_TRANS_U5_N14705578 GND  60k TC=0,0 
X_TPS56628_TRANS_U5_U258         TPS56628_TRANS_U5_ONS1
+  TPS56628_TRANS_U5_N14703724 TPS56628_TRANS_U5_TBLNKB TPS56628_TRANS_ENCIR
+  NAND3_PS PARAMS: VHI=1 VLO=0 VTHRESH=500E-3 TPLH=1E-9 TPHL=1E-9 TR=1E-9
+  TF=1E-9
X_TPS56628_TRANS_U5_U275         TPS56628_TRANS_U5_DRVOFF
+  TPS56628_TRANS_UVP_DELAY TPS56628_TRANS_U5_HI_READY TPS56628_TRANS_OVP
+  TPS56628_TRANS_U5_HIDRIVE NOR4
X_TPS56628_TRANS_U5_U243         TPS56628_TRANS_U5_BLNKM TPS56628_TRANS_U5_NCLB
+  TPS56628_TRANS_U5_N14704178 OR
E_TPS56628_TRANS_U5_E11         TPS56628_TRANS_U5_N14786773 GND
+  TPS56628_TRANS_U5_OCLHI GND 2
X_TPS56628_TRANS_U5_U287         TPS56628_TRANS_U5_N153300531
+  TPS56628_TRANS_U5_N14703484 TPS56628_TRANS_U5_N153307452 AND
E_TPS56628_TRANS_U5_ABM47         TPS56628_TRANS_U5_START_DEL 0 VALUE {
+  if(V(TPS56628_TRANS_U5_TIMEOCL) >0.5,1,0)    }
X_TPS56628_TRANS_U5_U241         TPS56628_TRANS_U5_BLNKM
+  TPS56628_TRANS_U5_LOOPB TPS56628_TRANS_U5_N14703638 OR
E_TPS56628_TRANS_U5_ABM49         TPS56628_TRANS_U5_VO_TON 0 VALUE { if(
+  V(TPS56628_TRANS_N16232707)<0.5,   
+ V(TPS56628_TRANS_U5_VOINFO1), 0.33)   }
E_TPS56628_TRANS_U5_E12         TPS56628_TRANS_U5_SWIN GND SW GND 1
R_TPS56628_TRANS_U5_R35         TPS56628_TRANS_U5_INT
+  TPS56628_TRANS_U5_N14705626  220k TC=0,0 
X_TPS56628_TRANS_U5_U286         TPS56628_TRANS_U5_LOW_READY
+  TPS56628_TRANS_U5_PREBIAS TPS56628_TRANS_OVP TPS56628_TRANS_U5_SSENDSET
+  TPS56628_TRANS_U5_N14703484 NOR4
C_TPS56628_TRANS_U5_C8         GND TPS56628_TRANS_U5_N14738075  4.6p IC=0
+  TC=0,0 
X_TPS56628_TRANS_U5_U270         TPS56628_TRANS_U5_N14704200
+  TPS56628_TRANS_U5_N153300931 TPS56628_TRANS_U5_ON1 NOR2
X_TPS56628_TRANS_U5_U261         TPS56628_TRANS_U5_N14707232
+  TPS56628_TRANS_U5_N14704178 TPS56628_TRANS_U5_N14704178 TPS56628_TRANS_U5_ZC
+  NAND3_PS PARAMS: VHI=1 VLO=0 VTHRESH=500E-3 TPLH=1E-9 TPHL=1E-9 TR=1E-9
+  TF=1E-9
G_TPS56628_TRANS_U5_ABM2I1         VREG5 TPS56628_TRANS_U5_TON VALUE {
+  if(V(TPS56628_TRANS_U5_DQOS)<0.25, V(SW)/170K,0)    }
X_TPS56628_TRANS_U5_U289         TPS56628_TRANS_U5_N15432636
+  TPS56628_TRANS_U5_N15433207 TPS56628_TRANS_PGOOD AND
R_TPS56628_TRANS_U5_R25         VREG5 GND  1e15 TC=0,0 
E_TPS56628_TRANS_U5_ABM12         TPS56628_TRANS_U5_NCLB 0 VALUE { if(
+  V(TPS56628_TRANS_LLC)  
+ > V(TPS56628_TRANS_U5_ECO),0,1)   }
X_TPS56628_TRANS_U5_U246         TPS56628_TRANS_U5_N153298611
+  TPS56628_TRANS_U5_TBLNKB INVERTER
R_TPS56628_TRANS_U5_R6         TPS56628_TRANS_U5_N14738075
+  TPS56628_TRANS_U5_N14791687  1800k TC=0,0 
C_TPS56628_TRANS_U5_C5         TPS56628_TRANS_VOINFO TPS56628_TRANS_U5_INT  6p
+  IC=0 TC=0,0 
V_TPS56628_TRANS_U5_V83         TPS56628_TRANS_U5_N15348605 GND 0.69
X_TPS56628_TRANS_U5_U269         TPS56628_TRANS_U5_LOW_READY
+  TPS56628_TRANS_U5_LOW_DELAY TPS56628_TRANS_U5_ONB TPS56628_TRANS_U5_ZC
+  NAND3_PS PARAMS: VHI=1 VLO=0 VTHRESH=500E-3 TPLH=1E-9 TPHL=1E-9 TR=1E-9
+  TF=1E-9
E_TPS56628_TRANS_U5_ABM10         TPS56628_TRANS_U5_LUPB 0 VALUE { if(
+  V(TPS56628_TRANS_U5_REFEFF)  
+ >V(TPS56628_TRANS_U5_VIM) ,1,0)   }
X_TPS56628_TRANS_U5_U296         TPS56628_TRANS_U5_BLNKM
+  TPS56628_TRANS_U5_TBLNKB TPS56628_TRANS_U5_N14705582 NAND2_PS PARAMS: VHI=1
+  VLO=0 VTHRESH=500E-3 TPLH=1E-9 TPHL=1E-9 TR=1E-9 TF=1E-9
X_TPS56628_TRANS_U5_U217         TPS56628_TRANS_U5_DQOS
+  TPS56628_TRANS_U5_N14705656 TPS56628_TRANS_U5_TOS OR
X_TPS56628_TRANS_U5_U311         TPS56628_TRANS_U5_N14704742
+  TPS56628_TRANS_U5_DRL1 INV_PS PARAMS: VHI=1 VLO=0 VTHRESH=500E-3 TPLH=1E-9
+  TPHL=1E-9 TR=1E-9 TF=1E-9
X_TPS56628_TRANS_U5_U191         TPS56628_TRANS_U5_N14703778
+  TPS56628_TRANS_U5_N14705142 BUFFER_PS PARAMS: VHI=1 VLO=0 VTHRESH=500E-3
+  TPLH=2n TPHL=50n TR=1E-9 TF=1E-9
V_TPS56628_TRANS_U5_V82         TPS56628_TRANS_U5_N14704906
+  TPS56628_TRANS_U5_VO_TON 70m
X_TPS56628_TRANS_U5_U7         TPS56628_TRANS_U5_N15433207
+  TPS56628_TRANS_U5_N15426677 VFB COMP PARAMS: VHYS=0.03
V_TPS56628_TRANS_U5_Veco         TPS56628_TRANS_U5_ECO GND -1m
X_TPS56628_TRANS_U5_U267         TPS56628_TRANS_U5_TBLNK
+  TPS56628_TRANS_U5_N14705168 TPS56628_TRANS_U5_TOS TPS56628_TRANS_U5_TOS
+  NAND3_PS PARAMS: VHI=1 VLO=0 VTHRESH=500E-3 TPLH=1E-9 TPHL=1E-9 TR=1E-9
+  TF=1E-9
E_TPS56628_TRANS_U5_ABM19         TPS56628_TRANS_U5_N14705078 0 VALUE { if(
+  V(TPS56628_TRANS_U5_N14704906)  
+ >V(TPS56628_TRANS_U5_TON) ,1,0)   }
X_TPS56628_TRANS_U5_U259         TPS56628_TRANS_U5_N14703428
+  TPS56628_TRANS_U5_OCLDIS TPS56628_TRANS_U5_OCLDIS TPS56628_TRANS_U5_ONS2
+  NAND3_PS PARAMS: VHI=1 VLO=0 VTHRESH=500E-3 TPLH=1E-9 TPHL=1E-9 TR=1E-9
+  TF=1E-9
X_TPS56628_TRANS_U5_S12    TPS56628_TRANS_U5_QRMP GND TPS56628_TRANS_U5_RMP GND
+  DCAP_TPS56628_TRANS_U5_S12 
G_TPS56628_TRANS_U5_G1         TPS56628_TRANS_U5_VIM GND
+  TPS56628_TRANS_U5_N14705578 TPS56628_TRANS_U5_N14705626 1u
E_TPS56628_TRANS_U5_ABM48         TPS56628_TRANS_U5_VOINFO1 0 VALUE {
+  V(TPS56628_TRANS_VOINFO) * 0.5    }
X_TPS56628_TRANS_U5_U284         TPS56628_TRANS_U5_LOWDRIVE
+  TPS56628_TRANS_U5_N14704296 TPS56628_TRANS_U5_DRL1 AND
X_TPS56628_TRANS_U5_U265         TPS56628_TRANS_U5_ON TPS56628_TRANS_U5_ONSET
+  TPS56628_TRANS_U5_ONSET TPS56628_TRANS_U5_N14704342 NAND3_PS PARAMS: VHI=1
+  VLO=0 VTHRESH=500E-3 TPLH=1E-9 TPHL=1E-9 TR=1E-9 TF=1E-9
X_TPS56628_TRANS_U5_U299         TPS56628_TRANS_U5_N153319331
+  TPS56628_TRANS_U5_LOW_READY INV_PS PARAMS: VHI=1 VLO=0 VTHRESH=500E-3
+  TPLH=200n TPHL=10E-9 TR=1E-9 TF=1E-9
X_TPS56628_TRANS_U5_U310         TPS56628_TRANS_U5_N14704648
+  TPS56628_TRANS_U5_DRH1 INV_PS PARAMS: VHI=1 VLO=0 VTHRESH=500E-3 TPLH=1E-9
+  TPHL=1E-9 TR=1E-9 TF=1E-9
X_TPS56628_TRANS_U5_U160         VREG5 VBST d_d1 PARAMS:
X_TPS56628_TRANS_U5_U245         TPS56628_TRANS_U5_N14704200
+  TPS56628_TRANS_U5_N14705922 INVERTER
X_TPS56628_TRANS_S1    TPS56628_TRANS_PGEN GND PG GND
+  TPS56628_TRANS_TPS56628_TRANS_S1 
X_TPS56628_TRANS_H1    TPS56628_TRANS_N16237767 GND TPS56628_TRANS_N16238589
+  GND TPS56628_TRANS_TPS56628_TRANS_H1 
X_TPS56628_TRANS_U3_U310         TPS56628_TRANS_ENCIR TPS56628_TRANS_U3_OV
+  TPS56628_TRANS_OVP AND
C_TPS56628_TRANS_U3_C11         GND TPS56628_TRANS_U3_N16211269  10n IC=0
+  TC=0,0 
R_TPS56628_TRANS_U3_R35         GND TPS56628_TRANS_U3_N16204884  1E11  
R_TPS56628_TRANS_U3_R9         TPS56628_TRANS_U3_N16211269
+  TPS56628_TRANS_ENUVOP  1 TC=0,0 
G_TPS56628_TRANS_U3_ABMII5         VREG5 TPS56628_TRANS_U3_N16204906 VALUE {
+  if(V(TPS56628_TRANS_U3_START_C) > 0.5, 40u * {(1+ MODE*9) }, 0)    }
X_TPS56628_TRANS_U3_S12    TPS56628_TRANS_ENCIR GND TPS56628_TRANS_VOINFO GND
+  FAULTS_TPS56628_TRANS_U3_S12 
V_TPS56628_TRANS_U3_V92         TPS56628_TRANS_U3_N162126210 GND 0.5
R_TPS56628_TRANS_U3_R37         GND TPS56628_TRANS_RESET  1E11  
E_TPS56628_TRANS_U3_ABM5         TPS56628_TRANS_U3_N14854917 0 VALUE {
+  if(V(VFB) < V(TPS56628_TRANS_U3_N14854823) * 0.65, 1,0)    }
R_TPS56628_TRANS_U3_R36         GND TPS56628_TRANS_U3_N16204906  1E11  
X_TPS56628_TRANS_U3_U576         TPS56628_TRANS_UVP_DELAY
+  TPS56628_TRANS_U3_N16204884 TPS56628_TRANS_U3_START_C
+  TPS56628_TRANS_U3_N16205016 srlatchrhp_basic_gen PARAMS: VDD=1 VSS=0
+  VTHRESH=.5
C_TPS56628_TRANS_U3_C1         GND TPS56628_TRANS_U3_N16204906  1.04u  
V_TPS56628_TRANS_U3_V91         TPS56628_TRANS_U3_N14854823 GND 0.765
X_TPS56628_TRANS_U3_U309         TPS56628_TRANS_U3_N14859807
+  TPS56628_TRANS_U3_N14854917 TPS56628_TRANS_U3_UVP AND
X_TPS56628_TRANS_U3_U577         TPS56628_TRANS_U3_N16204884
+  TPS56628_TRANS_U3_N16204906 TPS56628_TRANS_U3_N162126210 COMP PARAMS: VHYS=0
X_TPS56628_TRANS_U3_U311         TPS56628_TRANS_U3_N16204884
+  TPS56628_TRANS_U3_N16241497 TPS56628_TRANS_RESET AND
R_TPS56628_TRANS_U3_R34         GND TPS56628_TRANS_U3_N16205016  1E11  
X_TPS56628_TRANS_U3_U578         TPS56628_TRANS_U3_N16211269
+  TPS56628_TRANS_RESET TPS56628_TRANS_U3_N14859807 TPS56628_TRANS_U3_N162125390
+  srlatchrhp_basic_gen PARAMS: VDD=1 VSS=0 VTHRESH=.5
E_TPS56628_TRANS_U3_ABM6         TPS56628_TRANS_U3_OV 0 VALUE { if(V(VFB) >
+  V(TPS56628_TRANS_U3_N14854823) * 1.25, 1,0)    }
X_TPS56628_TRANS_U3_U190         TPS56628_TRANS_U3_UVP TPS56628_TRANS_UVP_DELAY
+  BUFFER_PS PARAMS: VHI=1 VLO=0 VTHRESH=500E-3 TPLH=250u TPHL=1n TR=1E-9 TF=1E-9
X_TPS56628_TRANS_U3_U191         TPS56628_TRANS_U3_N16204884
+  TPS56628_TRANS_U3_N16241581 BUFFER_PS PARAMS: VHI=1 VLO=0 VTHRESH=500E-3
+  TPLH=10u TPHL=1n TR=1E-9 TF=1E-9
X_TPS56628_TRANS_U3_U14         TPS56628_TRANS_U3_N16241497
+  TPS56628_TRANS_U3_N16241581 INV_PS PARAMS: VHI=1 VLO=0 VTHRESH=500E-3
+  TPLH=1E-9 TPHL=1E-9 TR=1E-9 TF=1E-9
R_TPS56628_TRANS_U3_R38         GND TPS56628_TRANS_U3_N162125390  1E11  
C_TPS56628_TRANS_C11         GND TPS56628_TRANS_LLC  10n IC=0 TC=0,0 
X_TPS56628_TRANS_S17    TPS56628_TRANS_N13133969 SW VIN SW
+  TPS56628_TRANS_TPS56628_TRANS_S17 
R_TPS56628_TRANS_R9         TPS56628_TRANS_LLC TPS56628_TRANS_N16238589  1
+  TC=0,0 
X_TPS56628_TRANS_U10         TPS56628_TRANS_N162356231 SW d_d1 PARAMS:
V_TPS56628_TRANS_V2         TPS56628_TRANS_N162350251 SW -250m
X_TPS56628_TRANS_S18    TPS56628_TRANS_N13133869 GND SW
+  TPS56628_TRANS_N16237767 TPS56628_TRANS_TPS56628_TRANS_S18 
C_TPS56628_TRANS_C8         VIN SW  1p IC=0 TC=0,0 
.ENDS TPS56628_TRANS

.subckt LDO_TPS56628_TRANS_u6_S1 1 2 3 4  
S_TPS56628_TRANS_u6_S1         3 4 1 2 _TPS56628_TRANS_u6_S1
RS_TPS56628_TRANS_u6_S1         1 2 1G
.MODEL         _TPS56628_TRANS_u6_S1 VSWITCH Roff=1e8 Ron=100 Voff=3.6 Von=3.4
.ends LDO_TPS56628_TRANS_u6_S1

.subckt SOFTSTART_TPS56628_TRANS_U1_S5 1 2 3 4  
S_TPS56628_TRANS_U1_S5         3 4 1 2 _TPS56628_TRANS_U1_S5
RS_TPS56628_TRANS_U1_S5         1 2 1G
.MODEL         _TPS56628_TRANS_U1_S5 VSWITCH Roff=1e11 Ron=10 Voff=.75 Von=.25
.ends SOFTSTART_TPS56628_TRANS_U1_S5

.subckt SOFTSTART_TPS56628_TRANS_U1_S6 1 2 3 4  
S_TPS56628_TRANS_U1_S6         3 4 1 2 _TPS56628_TRANS_U1_S6
RS_TPS56628_TRANS_U1_S6         1 2 1G
.MODEL         _TPS56628_TRANS_U1_S6 VSWITCH Roff=1e11 Ron=1k Voff=.25 Von=.75
.ends SOFTSTART_TPS56628_TRANS_U1_S6

.subckt DCAP_TPS56628_TRANS_U5_S8 1 2 3 4  
S_TPS56628_TRANS_U5_S8         3 4 1 2 _TPS56628_TRANS_U5_S8
RS_TPS56628_TRANS_U5_S8         1 2 1G
.MODEL         _TPS56628_TRANS_U5_S8 VSWITCH Roff=1e11 Ron=.9 Voff=.25 Von=.75
.ends DCAP_TPS56628_TRANS_U5_S8

.subckt DCAP_TPS56628_TRANS_U5_S5 1 2 3 4  
S_TPS56628_TRANS_U5_S5         3 4 1 2 _TPS56628_TRANS_U5_S5
RS_TPS56628_TRANS_U5_S5         1 2 1G
.MODEL         _TPS56628_TRANS_U5_S5 VSWITCH Roff=1e11 Ron=3 Voff=.25 Von=.75
.ends DCAP_TPS56628_TRANS_U5_S5

.subckt DCAP_TPS56628_TRANS_U5_S7 1 2 3 4  
S_TPS56628_TRANS_U5_S7         3 4 1 2 _TPS56628_TRANS_U5_S7
RS_TPS56628_TRANS_U5_S7         1 2 1G
.MODEL         _TPS56628_TRANS_U5_S7 VSWITCH Roff=1e11 Ron=3 Voff=.25 Von=.75
.ends DCAP_TPS56628_TRANS_U5_S7

.subckt DCAP_TPS56628_TRANS_U5_S6 1 2 3 4  
S_TPS56628_TRANS_U5_S6         3 4 1 2 _TPS56628_TRANS_U5_S6
RS_TPS56628_TRANS_U5_S6         1 2 1G
.MODEL         _TPS56628_TRANS_U5_S6 VSWITCH Roff=1e11 Ron=.9 Voff=.25 Von=.75
.ends DCAP_TPS56628_TRANS_U5_S6

.subckt DCAP_TPS56628_TRANS_U5_S12 1 2 3 4  
S_TPS56628_TRANS_U5_S12         3 4 1 2 _TPS56628_TRANS_U5_S12
RS_TPS56628_TRANS_U5_S12         1 2 1G
.MODEL         _TPS56628_TRANS_U5_S12 VSWITCH Roff=1e11 Ron=1 Voff=.25 Von=.75
.ends DCAP_TPS56628_TRANS_U5_S12

.subckt TPS56628_TRANS_TPS56628_TRANS_S1 1 2 3 4  
S_TPS56628_TRANS_S1         3 4 1 2 _TPS56628_TRANS_S1
RS_TPS56628_TRANS_S1         1 2 1G
.MODEL         _TPS56628_TRANS_S1 VSWITCH Roff=1e8 Ron=1 Voff=.25 Von=.75
.ends TPS56628_TRANS_TPS56628_TRANS_S1

.subckt TPS56628_TRANS_TPS56628_TRANS_H1 1 2 3 4  
H_TPS56628_TRANS_H1         3 4 VH_TPS56628_TRANS_H1 28m
VH_TPS56628_TRANS_H1         1 2 0V
.ends TPS56628_TRANS_TPS56628_TRANS_H1

.subckt FAULTS_TPS56628_TRANS_U3_S12 1 2 3 4  
S_TPS56628_TRANS_U3_S12         3 4 1 2 _TPS56628_TRANS_U3_S12
RS_TPS56628_TRANS_U3_S12         1 2 1G
.MODEL         _TPS56628_TRANS_U3_S12 VSWITCH Roff=1e11 Ron=5 Voff=.6 Von=.4
.ends FAULTS_TPS56628_TRANS_U3_S12

.subckt TPS56628_TRANS_TPS56628_TRANS_S17 1 2 3 4  
S_TPS56628_TRANS_S17         3 4 1 2 _TPS56628_TRANS_S17
RS_TPS56628_TRANS_S17         1 2 1G
.MODEL         _TPS56628_TRANS_S17 VSWITCH Roff=1e8 Ron=36m Voff=1 Von=2
.ends TPS56628_TRANS_TPS56628_TRANS_S17

.subckt TPS56628_TRANS_TPS56628_TRANS_S18 1 2 3 4  
S_TPS56628_TRANS_S18         3 4 1 2 _TPS56628_TRANS_S18
RS_TPS56628_TRANS_S18         1 2 1G
.MODEL         _TPS56628_TRANS_S18 VSWITCH Roff=1e8 Ron=28m Voff=1 Von=3
.ends TPS56628_TRANS_TPS56628_TRANS_S18


*$
.SUBCKT LDCR IN OUT
+ PARAMs:  L=1u DCR=0.01 IC=0
L	IN 1  {L} IC={IC}
RDCR	1 OUT {DCR}
.ENDS LDCR
*$
.SUBCKT CESR IN OUT
+ PARAMs:  C=100u ESR=0.01 X=2 IC=0
C	IN 1  {C*X} IC={IC}
RESR	1 OUT {ESR/X}
.ENDS CESR
*$
.SUBCKT AND A B OUT  
EOUT OUT1 0 VALUE { IF( V(A)>0.5 & V(B)>0.5,1,0) }
R1 OUT1 OUT 1
C1 OUT 0 10p
.ends AND
*$
.SUBCKT OR A B OUT  
EOUT OUT1 0 VALUE { IF( V(A)>0.5 | V(B)>0.5,1,0) }
R1 OUT1 OUT 1
C1 OUT 0 10p
.ends OR
*$
.SUBCKT NOR2 A B OUT  
EOUT OUT1 0 VALUE { IF( V(A)>0.5 | V(B)>0.5,0,1) }
R1 OUT1 OUT 1
C1 OUT 0 10p
.ends NOR2
*$
.SUBCKT NOR3 A B C OUT  
EOUT OUT1 0 VALUE { IF( V(A)>0.5 | V(B)>0.5 | V(C)>0.5,0,1) }
R1 OUT1 OUT 1
C1 OUT 0 10p
.ends NOR3
*$
.SUBCKT NOR4 A B C D OUT  
EOUT OUT1 0 VALUE { IF( V(A)>0.5 | V(B)>0.5 | V(C)>0.5 | V(D)>0.5,0,1) }
R1 OUT1 OUT 1
C1 OUT 0 10p
.ends NOR4
*$
.SUBCKT NAND3 A B C OUT  
EOUT OUT1 0 VALUE { IF( V(A)<0.5 & V(B)<0.5 & V(C)<0.5,1,0) }
R1 OUT1 OUT 1
C1 OUT 0 10p
.ends NAND3
*$
.SUBCKT NAND2 A B OUT  
EOUT OUT1 0 VALUE { IF( V(A)<0.5 & V(B)<0.5,1,0) }
R1 OUT1 OUT 1
C1 OUT 0 10p
.ends NAND2
*$
.SUBCKT AND3 A B C OUT  
EOUT OUT1 0 VALUE { IF( V(A)>0.5 & V(B)>0.5 & V(C)>0.5,1,0) }
R1 OUT1 OUT 1
C1 OUT 0 10p
.ends AND3
*$
.SUBCKT INVERTER IN OUT  
EOUT OUT1 0 VALUE { IF( V(IN)<0.5,1,0) }
R1 OUT1 OUT 1
C1 OUT 0 10p
.ends INVERTER
*$
.SUBCKT COMP_HYS2 INP OUT 
+ PARAMs:  TH=.5 HYS=0.1
EIN INP1 0 INP 0 1 
EHYS INP1 INP2 VALUE { IF( V(1)>0.5,-(HYS)/2,HYS/2) }
EOUT OUT 0 VALUE { IF( V(INP2)>TH,1,0) }
R1 OUT 1 1
C1 1 0 1n
RINP1 INP1 0 10K
.ends COMP_HYS2
*$
.SUBCKT DELAY IN OUT
+ PARAMs:  T=100
S_S1         MEAS 0 RESET2 0 S1
E_ABM1         CH 0 VALUE { if( V(IN)>0.5,1,0)    }
E_ABM3         OUT 0 VALUE { if( V(MEAS)>0.5 & V(CH)>0.5,1,0)    }
R_R1         MEAS CH  {T} 
C_C1         0 MEAS  1.4427n  
E_ABM2         RESET 0 VALUE { if(V(CH)<0.5,1,0)    }
R_R2         RESET2 RESET  0.1  
C_C2         0 RESET2  1.4427n  
.MODEL         S1 VSWITCH Roff=1e9 Ron=1.0 Voff=0.25V Von=0.75V
.ENDS DELAY
*$
.SUBCKT NAND3_PS Y A B C PARAMS: vhi=1 vlo=0 vthresh=500e-3
+ tplh=1e-9 tphl=1e-9 tr=1e-9 tf=1e-9
RA A 0 1e11
CA A 0 0.01pF
RB B 0 1e11
CB B 0 0.01pF
RC C 0 1e11
CC C 0 0.01pF
VS VSUP 0 DC 1
ENAND3 Ypp 0 VALUE={IF(V(A) > {vthresh} & V(B) > {vthresh} & V(C) >
+ {vthresh}, 0, 1)}
ROUTpp Ypp 0 1e11
XNSW1 OUTp Ypp 0 NSW_PS PARAMS: RONval={(tplh+1e-15)/(1e-12*0.693)}
+ VTHval=0.5
XPSW1 OUTp Ypp VSUP PSW_PS PARAMS: RONval={(tphl+1e-15)/(1e-12*0.693)}
+ VTHval=0.5
CDEL1 OUTp 0 1pF
ETHRESH Yp 0 VALUE={IF(V(OUTp) > 0.5, 1, 0)}
ROUTp Yp 0 1e11
XNSW2 OUTr Yp 0 NSW_PS PARAMS: RONval={(tf+1e-15)/(1e-12*2.3)} VTHval=0.5
XPSW2 OUTr Yp VSUP PSW_PS PARAMS: RONval={(tr+1e-15)/(1e-12*2.3)} VTHval=0.5
CDEL2 OUTr 0 1pF