*$
* TPS51285B
*****************************************************************************
* (C) Copyright 2013 Texas Instruments Incorporated. All rights reserved.                                            
*****************************************************************************
** This model is designed as an aid for customers of Texas Instruments.
** TI and its licensors and suppliers make no warranties, either expressed
** or implied, with respect to this model, including the warranties of 
** merchantability or fitness for a particular purpose.  The model is
** provided solely on an "as is" basis.  The entire risk as to its quality
** and performance is with the customer
*****************************************************************************
*
* This model is subject to change without notice. Texas Instruments
* Incorporated is not responsible for updating this model.
*
*****************************************************************************
*
** Released by: WEBENCH Design Center, Texas Instruments Inc.
* Part: TPS51285B
* Date: 30MAR2013
* Model Type: TRANSIENT
* Simulator: PSPICE
* Simulator Version: 16.2.0.p001
* EVM Order Number: 
* EVM Users Guide: 
* Datasheet: SLVSBX0
*
* Model Version: Final 1.00
*
*****************************************************************************
*
* Updates:
*
* Final 1.00
* Release to Web.
*
*****************************************************************************
.SUBCKT TPS51285B_TRANS CS1 CS2 DRVH1 DRVH2 DRVL1 DRVL2 EN1 EN2 PGOOD PwrPd SW1
+  SW2 VBST1 VBST2 VCLK VFB1 VFB2 VIN VO1 VREG3 VREG5 PARAMS: MODE=1
X_U191         TODELAY DELAY2 BUFFER_PS PARAMS: VHI=1 VLO=0 VTHRESH=500E-3
+  TPLH={(1- MODE*0.9) *0.5m} TPHL=10u TR=1E-9 TF=1E-9
X_U255         ENCIRD1 ENCIRD2 N15656858 AND
X_U240         N15656858 N15656792 INVERTER
X_U219         PGEN_INV PGEN INVERTER
E_ABM8         PGEN_INV 0 VALUE { if( V(N15656952)>0.5,  
+ V(DELAY2),  
+ V(DELAY) )  }
X_u5_U258         u5_N16269410 SSEND1 u5_N16269510  $G_DPWR PWRPD AND2
X_u5_U19         VREG3 u5_N10600939 VIN PMOSIDEAL_PS PARAMS: K=
+ {0.11+(0.2*MODE)} VTH=1
X_u5_U261         u5_N16484441 u5_N16484349 u5_DELAY_LESS AND
E_u5_ABM36         u5_N15531240 0 VALUE { if(V(EN1) > 1.6, 1,0)    }
X_u5_S10    N15159302 PWRPD VREF PWRPD LDOs_u5_S10 
X_u5_U14         VREF u5_N10597008 VIN PMOSIDEAL_PS PARAMS: K=.1 VTH=1
R_u5_R29         u5_N10596400 VREG5  750k TC=0,0 
X_u5_U262         u5_N16484441 u5_N16484349 INV_DELAY_BASIC1V PARAMS:
+  DELAY=750n
C_u5_C5         PWRPD u5_N16269502  1n  
X_u5_U20         VREG3 VIN d_d1 PARAMS:
X_u5_U256         u5_CHECK u5_N16290892 INV_DELAY_BASIC1V PARAMS: DELAY=10N
X_u5_S16    u5_DELAY_LESS PWRPD u5_VCLK_R u5_DELAY_10 LDOs_u5_S16 
V_u5_V8         u5_N16530209 PWRPD 0.5
X_u5_U240         u5_SHDW_CLK u5_N16578571 INVERTER
E_u5_ABM70         u5_N16269870 0 VALUE { IF(V(u5_SHDW_CLK)<0.5,
+  V(u5_N16269502), 0)    }
E_u5_ABM65         u5_N10600939 0 VALUE { if( V(N15159302)>0.5,  
+ V(u5_N10600895),  
+ V(VIN) )  }
R_u5_R30         PWRPD u5_N10596400  250K TC=0,0 
C_u5_C2         PWRPD u5_DELAY_10  1n  
E_u5_ABM33         u5_N15529854 0 VALUE { if(V(EN2) > 1.6, 1,0)    }
X_u5_U257         u5_N16290892 u5_CHECK u5_N16290896 AND
E_u5_ABM61         u5_ENVO 0 VALUE { IF( V(N15159302)>0.5  
+ ,V(u5_VOREADY),0)   }
V_u5_V16         u5_N16338164 PWRPD 11.5m
X_u5_U260         u5_N16578571 u5_CLK u5_N16269382  $G_DPWR PWRPD AND2
E_u5_ABM34         LOWVIN 0 VALUE { if( V(VIN) < 6.7, 1 ,0)    }
R_u5_R8         u5_N10597060 VREF  150k TC=0,0 
X_u5_U16         u5_ENVO u5_ENV5IN delay PARAMS: T=1E4
X_u5_U28         u5_N10597374 VIN u5_N10597060 u5_VR VCVSCLIP_PS PARAMS:
+  GAIN=5000 VOMAX=1 VOMIN=-2
V_u5_V7         u5_N16530743 PWRPD 4.58
E_u5_ABM32         u5_VR 0 VALUE { if(V(u5_VIN_OK) > 0.5, 1.25,0)    }
R_u5_R11         PWRPD u5_N16269946  1Meg  
E_u5_ABM35         VLOWVIN 0 VALUE { if( V(VIN) < 5.9, 1 ,0)    }
R_u5_R16         PWRPD u5_N10597060  250K TC=0,0 
X_u5_U22         u5_N16290896 u5_RT_DET d_d1 PARAMS:
E_u5_ABM39         VVLOWVIN 0 VALUE { if( V(VIN) < 5.6, 1 ,0)    }
R_u5_R13         PWRPD u5_N16269832  1Meg  
R_u5_R31         u5_N10600367 VREG3  410k TC=0,0 
V_u5_V10         u5_N16535871 PWRPD 4.58
X_u5_S9    u5_ENV5IN PWRPD VREG5 VO1 LDOs_u5_S9 
E_u5_ABM80         u5_CHECK 0 VALUE { IF(V(SSEND1)<0.5,V(u5_CHECK_CLK), 0)    }
C_u5_C1         u5_RT_DET PWRPD  1n  
X_u5_U27         u5_N10596942 VIN u5_N10596400 u5_VR VCVSCLIP_PS PARAMS:
+  GAIN=5000 VOMAX=1 VOMIN=-2
X_u5_S12    u5_N16269382 PWRPD VO1 u5_N16269502 LDOs_u5_S12 
E_u5_ABM68         u5_N10597008 0 VALUE { if( V(N15159302)>0.5,  
+ V(u5_N10597374),  
+ V(VIN) )  }
X_u5_U18         VREG5 u5_N10596986 VIN PMOSIDEAL_PS PARAMS: K=
+ {0.11+(0.8*MODE)} VTH=1
X_u5_U48         u5_N16269510 u5_N16269832 u5_SHDW_CLK u5_N16269946
+  srnandlatchshp_basic PARAMS:
X_u5_U239         u5_N16269382 u5_N16269390 INVERTER
E_u5_ABM37         u5_N16602556 0 VALUE { if(V(VREG3) > 2.4,1,0)    }
R_u5_R34         u5_N16290896 u5_RT_DET  564k  
V_u5_V11         u5_N165330243 PWRPD 0.5
E_u5_ABM38         u5_N16269410 0 VALUE { if( V(u5_RT_DET) >0.5, 1 ,0)    }
X_u5_S13    u5_N16269390 PWRPD u5_N16269502 PWRPD LDOs_u5_S13 
X_u5_U226         VIN u5_N16535871 u5_N165330243 u5_VIN_OK COMPHYS_BASIC_GEN
+  PARAMS: VDD=1 VSS=0 VTHRESH=0.5
X_u5_U21         VREG5 VIN d_d1 PARAMS:
E_u5_ABM62         u5_N10596986 0 VALUE { if( V(u5_ENLDO5)>0.5,  
+ V(u5_N10596942),  
+ V(VIN) )  }
X_u5_U255         u5_N15529854 u5_N15531240 u5_EN5 OR
X_u5_U259         u5_CLK u5_N16484441 delay PARAMS: T=500
X_u5_H1    u5_N16269870 VCLK u5_VCLK_R PWRPD LDOs_u5_H1 
X_u5_U225         VO1 u5_N16530743 u5_N16530209 u5_VOREADY COMPHYS_BASIC_GEN
+  PARAMS: VDD=1 VSS=0 VTHRESH=0.5
R_u5_R33         PWRPD u5_N10600367  250K TC=0,0 
E_u5_ABM60         u5_ENLDO5 0 VALUE { IF( V(u5_ENV5IN)<0.5  
+ & V(u5_N16602556)>0.5 ,1,0)   }
E_u5_ABM78         u5_CHECK_CLK 0 VALUE { IF(V(u5_N16338164)<V(u5_DELAY_10),1,
+  0)    }
X_u5_S11    N15159302 PWRPD VREG3 PWRPD LDOs_u5_S11 
V_u5_V13         u5_CLK PWRPD  
+PULSE 1 0 0 1n 1n 1.953125u 3.90625u
X_u5_U29         u5_N10600895 VIN u5_N10600367 u5_VR VCVSCLIP_PS PARAMS:
+  GAIN=5000 VOMAX=1 VOMIN=-2
X_U192         N15657028 N15656934 BUFFER_PS PARAMS: VHI=1 VLO=0 VTHRESH=500E-3
+  TPLH=50u TPHL=10u TR=1E-9 TF=1E-9
R_U2_R275         U2_N17333877 U2_INDELAYED2  40.40  
X_U2_U272         U2_LOWREADY U2_SSENDSET U2_UVP U2_N17333556 NOR3
R_U2_R43         U2_N17333593 U2_N17335552  4Meg TC=0,0 
R_U2_R36         PWRPD U2_N17336909  600k TC=0,0 
E_U2_ABM67         U2_ULQ_PWM 0 VALUE { if(V(U2_N17338676)>0.5,1,0)    }
X_U2_U321         U2_NOCL_CHECK U2_N17333757 INVERTER
R_U2_R20         PWRPD U2_N17337495  1Meg  
C_U2_C11         PWRPD U2_ON1_BAR_DELAY  0.7p IC=0 TC=0,0 
V_U2_V91         U2_N17336600 PWRPD 5
X_U2_U316         U2_PWMMODE U2_PWMMODE U2_N17338112 OR
R_U2_R34         U2_N17335597 PWRPD  1k TC=0,0 
E_U2_ABM10         U2_LUPB_DEL 0 VALUE { if( V(U2_REFEFF)  
+ >V(U2_N17333820) ,1,0)   }
X_U2_U283         U2_N17334514 U2_N173363492 U2_N173363491 AND
X_U2_U245         U2_N17333894 U2_N17335313 INVERTER
X_U2_U190         U2_SHOTIN U2_N17333690 INV_PS PARAMS: VHI=1 VLO=0
+  VTHRESH=500E-3 TPLH=20n TPHL=20n TR=1E-9 TF=1E-9
X_U2_U303         U2_N17334571 U2_N17334571 U2_N17336201 AND
X_U2_U314         U2_HIDRIVE_NON_DELAYED U2_N17333780 U2_N17333877 AND
X_U2_U241         U2_BLNKM U2_LOOP_RAW U2_N17338088 OR
R_U2_R17         PWRPD U2_N173354563  1Meg  
X_U2_U216         U2_TRES ENCIRD2 U2_N17335195 AND
X_U2_U336         U2_ULQ_CHECK U2_N17335750 U2_ULQ_CHECK1 AND
X_U2_U313         U2_N17386494 U2_XULQ U2_SHOT_BLANK AND
X_U2_U275         U2_DRVOFF U2_DRVOFF U2_HIREADY U2_UVP U2_HIDRIVE_NON_DELAYED
+  NOR4
R_U2_R28         U2_ON1_BAR_DELAY U2_ON1_BAR  284.477k TC=0,0 
V_U2_V90         U2_EN_VIN_TONEXT PWRPD 1
C_U2_C17         PWRPD U2_N17336513  2p IC=0 TC=0,0 
X_U2_U307         U2_ON1 U2_ON1_BAR INVERTER
E_U2_ABM8         U2_MODECHECK 0 VALUE { if( V(U2_N17338112)>0.5,  
+ -V(U2_OCLTHR),  
+ V(PWRPD) )  }
G_U2_ABMII4         V5FILT U2_RMP VALUE { if(V(ENCIRD2) > 0.5, 12n , 0)    }
E_U2_ABM3         U2_DRVH_EVENT 0 VALUE { if(V(DRVH2)>5,1,0)    }
X_U2_U18         U2_N17333877 U2_INDELAYED2 d_d2 PARAMS:
X_U2_U19         U2_RMP U2_N17333471 d_d1 PARAMS:
X_U2_U317         U2_XULQ_100N_DELAY U2_N17386494 INVERTER
X_U2_U239         U2_N173363151 U2_LOOPB INVERTER
X_U2_U246         U2_N17334120 U2_TBLNKB INVERTER
X_U2_U298         U2_N17336342 SSEND2 U2_C_IN AND
E_U2_ABM43         U2_N17336247 0 VALUE { if(V(PWRPD) >0.7 &  
+ V(V5INOK) >0.5,1,0)   }
X_U2_U268         U2_N17334952 ENCIRD2 U2_N17334956 U2_N17333951 NAND3_PS
+  PARAMS: VHI=1 VLO=0 VTHRESH=500E-3 TPLH=1E-9 TPHL=1E-9 TR=1E-9 TF=1E-9
X_U2_U297         U2_SHOTIN U2_N17334433 INVERTER
E_U2_ABM59         U2_HIGH_C 0 VALUE { if(V(VFB2)<2.2,1,0)    }
E_U2_ABM51         U2_DISCH 0 VALUE { if( V(U2_OVP)>0.5 |  
+ V(U2_UVP) >0.5 |  
+ V(ENCIRD2) <0.5,1,0)  }
C_U2_C178         U2_N17335672 U2_N17335552  3p  
R_U2_R12         PWRPD U2_N17334504  1Meg  
R_U2_R37         U2_N17336909 U2_LL_IN  400k TC=0,0 
X_U2_U300         U2_N17333694 U2_N17333690 U2_SHOTIN ENCIRD2 NAND3_PS PARAMS:
+  VHI=1 VLO=0 VTHRESH=500E-3 TPLH=1E-9 TPHL=1E-9 TR=1E-9 TF=1E-9
E_U2_ABM20         U2_N17351736 0 VALUE { if( V(U2_TON)   
+ <V(U2_LLAVG),1,0)   }
X_U2_U264         U2_N17338543 U2_SSENDSET U2_N17334701 SSEND2 NAND3_PS PARAMS:
+  VHI=1 VLO=0 VTHRESH=500E-3 TPLH=1E-9 TPHL=1E-9 TR=1E-9 TF=1E-9
E_U2_ABM60         U2_LOW_C 0 VALUE { if(V(VFB2)>(1.8-(V(U2_PGOOD1)*0.6)),1,0) 
+    }
R_U2_R38         U2_N17335672 PWRPD  1k TC=0,0 
R_U2_R42         U2_N17335569 U2_N17335552  4Meg TC=0,0 
R_U2_R13         PWRPD U2_N17335316  1Meg  
X_U2_U338         U2_ZC U2_LUPB U2_N17338285 U2_N17342419 SRLATCHRHP_BASIC_GEN
+  PARAMS: VDD=1 VSS=0 VTHRESH=0.5
X_U2_U35         U2_OV U2_OVD delay PARAMS: T=500
X_U2_U243         U2_BLNKM U2_N17334274 U2_N17333926 OR
X_U2_U212         U2_N173363491 U2_DRH2 BUFFER_PS PARAMS: VHI=1 VLO=0
+  VTHRESH=500E-3 TPLH=10E-9 TPHL=2E-9 TR=1E-9 TF=1E-9
X_U2_U255         U2_ZC U2_N17336432 U2_N17336342 OR
X_U2_U219         U2_N17334433 U2_DQOS_IN U2_DQOS OR
E_U2_ABM17         U2_N17337139 0 VALUE { if( V(SSEND2) >0.5, V(U2_OCLTHR)
+  ,(V(U2_OCLTHR) * {(1+ MODE) }))    }
E_U2_ABM6         U2_1P125VREF 0 VALUE { V(U2_V2P0) * 1.15    }
X_U2_U323         U2_NCL SSEND2 U2_N17335854 AND
R_U2_R48         U2_N17333593 PWRPD  11Meg TC=0,0 
X_U2_U195         U2_N17333780 U2_HIDRIVE_NON_DELAYED INV_PS PARAMS: VHI=1
+  VLO=0 VTHRESH=500E-3 TPLH=1E-9 TPHL=2E-9 TR=1E-9 TF=1E-9
X_U2_U305         U2_N17337189 U2_ON1 U2_ON1_BAR_DELAY U2_N17337228 NAND3_PS
+  PARAMS: VHI=1 VLO=0 VTHRESH=500E-3 TPLH=1E-9 TPHL=1E-9 TR=1E-9 TF=1E-9
X_U2_U325         U2_ULQ U2_ULQN INVERTER
E_U2_ABM68         U2_XULQ 0 VALUE { if(V(U2_N17342419)>0.5,1,0)    }
X_U2_U218         U2_N17337189 U2_DRVOFF U2_N17337106 OR
X_U2_U270         U2_N17333894 U2_N173361662 U2_N17333550 NOR2
R_U2_R16         PWRPD U2_N17336676  1Meg  
X_U2_U315         U2_HIDRIVE_NON_DELAYED U2_INDELAYED2 U2_HIDRIVE OR
E_U2_ABM42         U2_OOA 0 VALUE { if(V(PWRPD) >1.5 & V(PWRPD) <5.5 &  
+ V(V5INOK) >0.5,1,0)   }
E_U2_ABM9         U2_OVP_LAT_TEST 0 VALUE { if( V(U2_NOCL_LATCH)>0.5,  
+ V(PWRPD),  
+ V(U2_OVP) )  }
V_U2_V89         U2_V2P0 PWRPD 2
E_U2_ABM65         U2_ULQ 0 VALUE { if(V(U2_N17338285)>0.5,1,0)    }
X_U2_S5    U2_DRH1 PWRPD VBST2 DRVH2 DCAP_ch2_U2_S5 
X_U2_U267         U2_N17333951 U2_N17334952 U2_SHOT_OUT U2_SHOT_OUT NAND3_PS
+  PARAMS: VHI=1 VLO=0 VTHRESH=500E-3 TPLH=1E-9 TPHL=1E-9 TR=1E-9 TF=1E-9
R_U2_R15         PWRPD U2_N173364170  1Meg  
E_U2_ABM63         U2_UVP_DELAY 0 VALUE { if(V(U2_N17334959)>0.5,1,0)    }
X_U2_U191         U2_N17335241 U2_N17335103 BUFFER_PS PARAMS: VHI=1 VLO=0
+  VTHRESH=500E-3 TPLH=2E-9 TPHL=20n TR=1E-9 TF=1E-9
X_U2_U290         U2_N17333556 U2_N17333556 U2_N17334934 AND
E_U2_ABM16         U2_N17334098 0 VALUE { if( V(U2_OCLTHR) * 0.5  
+ >V(U2_LLO) ,1,0)   }
X_U2_U51         U2_LOWDRIVE U2_N17333757 U2_LOWRIVE_LATCH U2_N173354563
+  srnandlatchshp_basic PARAMS:
E_U2_ABM41         U2_PWMMODE 0 VALUE { if(V(0) >0.5 |  
+ V(U2_N17336247) >0.5,1,0)   }
R_U2_R46         U2_N17335552 U2_N17335588  4Meg TC=0,0 
C_U2_C6         U2_TON U2_N17334176  6p IC=0 TC=0,0 
X_U2_U301         ENCIRD2 U2_N17336201 U2_N17337987 AND
X_U2_S21    U2_ULQN PWRPD U2_N17336513 PWRPD DCAP_ch2_U2_S21 
R_U2_R25         PWRPD U2_RMP  1e8 TC=0,0 
E_U2_ABM58         U2_OVPX 0 VALUE { if(V(U2_LLAVG)>5.9,1,0)    }
R_U2_R44         U2_N17335965 PWRPD  1k TC=0,0 
R_U2_R35         U2_TON U2_N17336909  180k TC=0,0 
X_U2_U238         ENCIRD2 U2_N17333628 U2_N17334246 AND
X_U2_U261         U2_ZC U2_N17333926 U2_N17333926 U2_ENLOW2 NAND3_PS PARAMS:
+  VHI=1 VLO=0 VTHRESH=500E-3 TPLH=1E-9 TPHL=1E-9 TR=1E-9 TF=1E-9
X_U2_U273         U2_N17333517 U2_OCMDIS U2_OCMDIS U2_OCM NAND3_PS PARAMS:
+  VHI=1 VLO=0 VTHRESH=500E-3 TPLH=1E-9 TPHL=1E-9 TR=1E-9 TF=1E-9
C_U2_C14         U2_LLO PWRPD  10p  TC=0,0 
X_U2_U3240         U2_ULQ_CHECK U2_N173357111 INVERTER
R_U2_R23         PWRPD PGOOD2  1e6  
R_U2_R22         PWRPD U2_N17338355  1Meg  
E_U2_ABM24         U2_RAMP 0 VALUE { if( V(ENCIRD2)>0.5  
+ & V(U2_RAMP_OFF)<0.5,  
+ LIMIT((V(U2_RMP)-0.01),-10m,10m),0)  }
X_U2_U269         U2_LOWREADY U2_ENLOW1 U2_ONB U2_ENLOW2 NAND3_PS PARAMS: VHI=1
+  VLO=0 VTHRESH=500E-3 TPLH=1E-9 TPHL=1E-9 TR=1E-9 TF=1E-9
G_U2_ABMII1         V5FILT U2_N17334959 VALUE { if(V(SSEND2) >0.5, 2.5u,0)    }
R_U2_R3         PWRPD U2_OOA  1Meg TC=0,0 
X_U2_U274         ENCIRD2 U2_DRVOFF INVERTER
X_U2_U259         U2_N17334411 U2_OCLDIS U2_OCLDIS U2_OCL NAND3_PS PARAMS:
+  VHI=1 VLO=0 VTHRESH=500E-3 TPLH=1E-9 TPHL=1E-9 TR=1E-9 TF=1E-9
R_U2_R51         U2_N17335970 U2_N17335854  1k TC=0,0 
X_U2_U26         U2_UV U2_UVD delay PARAMS: T=50
X_U2_U278         U2_HIREADY U2_N17335241 INVERTER
E_U2_ABM34         U2_UVP 0 VALUE { if( V(U2_UVLATCH)> 0.5 &  
+ V(ENUVPG2)>0.5,1,0)   }
X_U2_H1    U2_N17336632 U2_N17336600 U2_CS_CURRENT PWRPD DCAP_ch2_U2_H1 
X_U2_U271         U2_DRVHPREBIAS U2_N173369312 U2_ENLOW1 NOR2
X_U2_U254         ENCIRD2 U2_N17334098 U2_N17334123 AND
X_U2_U188         U2_N17333951 U2_N17334120 BUFFER_PS PARAMS: VHI=1 VLO=0
+  VTHRESH=500E-3 TPLH=2E-9 TPHL=10E-9 TR=1E-9 TF=1E-9
X_U2_U289         U2_DRL2 U2_N17334201 INVERTER
R_U2_R18         PWRPD U2_N17335774  1Meg  
X_U2_U192         DRVL2 U2_N17333894 BUFFER_PS PARAMS: VHI=1 VLO=0 VTHRESH=2.5
+  TPLH=12E-9 TPHL=2E-9 TR=1E-9 TF=1E-9
X_U2_U288         U2_DRL1 U2_N17334573 INVERTER
E_U2_E8         U2_LL_IN PWRPD SW2 PWRPD 1
X_U2_U257         U2_N17334155 U2_LBB U2_LBB U2_N17333921 NAND3_PS PARAMS:
+  VHI=1 VLO=0 VTHRESH=500E-3 TPLH=1E-9 TPHL=1E-9 TR=1E-9 TF=1E-9
X_U2_U266         U2_N17334103 U2_ON U2_SHOT_OUT ENCIRD2 NAND3_PS PARAMS: VHI=1
+  VLO=0 VTHRESH=500E-3 TPLH=1E-9 TPHL=1E-9 TR=1E-9 TF=1E-9
X_U2_U282         U2_HIDRIVE U2_N17334743 U2_N17335157 AND
X_U2_S11    U2_N173350100 PWRPD U2_N17334959 PWRPD DCAP_ch2_U2_S11 
X_U2_U310         U2_N17334763 U2_HIDRIVE U2_QRMP AND
X_U2_U339         U2_ZC U2_SHOT_OUT U2_N17338347 U2_N17338355
+  SRLATCHRHP_BASIC_GEN PARAMS: VDD=1 VSS=0 VTHRESH=0.5
C_U2_C179         U2_N17333595 U2_N17333593  3p  
C_U2_C176         0 U2_INDELAYED2  1n  
X_U2_U294         U2_HIREADY U2_ON1 U2_N17333550 NAND2_PS PARAMS: VHI=1 VLO=0
+  VTHRESH=500E-3 TPLH=1E-9 TPHL=1E-9 TR=1E-9 TF=1E-9
X_U2_U304         U2_ON1 U2_N17337077 U2_N17337077 U2_N17337106 NAND3_PS
+  PARAMS: VHI=1 VLO=0 VTHRESH=500E-3 TPLH=1E-9 TPHL=1E-9 TR=1E-9 TF=1E-9
X_U2_U293         U2_EN_VIN_TONEXT PWRPD U2_B_IN AND
X_U2_U280         U2_LOWDRIVE U2_N173354981 INVERTER
R_U2_R21         PWRPD U2_N17402504  1Meg  
C_U2_C10         PWRPD U2_RMP  2.45p IC=0 TC=0,0 
X_U2_U291         U2_SHOT_BLANK U2_N17357804 U2_TRES OR
X_U2_U258         U2_N17333921 U2_N17334155 U2_TBLNKB ENCIRD2 NAND3_PS PARAMS:
+  VHI=1 VLO=0 VTHRESH=500E-3 TPLH=1E-9 TPHL=1E-9 TR=1E-9 TF=1E-9
R_U2_R26         PWRPD U2_N17335794  1Meg  
E_U2_ABM21         U2_HYSTVAL 0 VALUE { V(U2_V2P0) * 0    }
E_U2_ABM23         U2_LLAVG 0 VALUE { if( V(U2_LONG_TON)>0.5,  
+ V(U2_N17335569),  
+ V(U2_N17333593) )  }
E_U2_ABM19         U2_LOWDRIVE_MUX 0 VALUE { if( V(U2_OVP)>0.5,  
+ V(U2_LOWRIVE_LATCH),  
+ V(U2_LOWDRIVE) )  }
X_U2_U142         U2_ONSET U2_OVPX U2_N17333921 U2_OCL U2_N17333951 OR4_PS
+  PARAMS: VHI=1 VLO=0 VTHRESH=500E-3 TPLH=1E-9 TPHL=1E-9 TR=1E-9 TF=1E-9
X_U2_U215         U2_N17335142 U2_DRL1 BUFFER_PS PARAMS: VHI=1 VLO=0
+  VTHRESH=500E-3 TPLH=10E-9 TPHL=2E-9 TR=1E-9 TF=1E-9
X_U2_U3241         U2_HIDRIVE U2_N17334763 INV_DELAY_BASIC_GEN PARAMS: VDD=1
+  VSS=0 VTHRESH=0.5 DELAY=2n
C_U2_C185         PWRPD U2_N17335970  2n  
X_U2_U13          U2_P675VREF VFB2 U2_HYSTVAL U2_UV COMP_HYS
E_U2_ABM66         U2_LONG_TON 0 VALUE { if(V(U2_N17338347)>0.5,1,0)    }
X_U2_U276         U2_OVP_LAT_TEST U2_N17334934 U2_LOWDRIVE OR
X_U2_U253         U2_BLNKM U2_N17334123 U2_OCMDIS OR
X_U2_U214         U2_N17334758 U2_DRL2 BUFFER_PS PARAMS: VHI=1 VLO=0
+  VTHRESH=500E-3 TPLH=10E-9 TPHL=2E-9 TR=1E-9 TF=1E-9
R_U2_R39         U2_N17333595 PWRPD  1k TC=0,0 
E_U2_ABM64         U2_N17335794 0 VALUE { if(V(U2_N17335717)>0.5,1,0)    }
X_U2_S7    U2_DRL2 PWRPD DRVL2 PWRPD DCAP_ch2_U2_S7 
E_U2_ABM13         PGOOD2 0 VALUE { if( V(U2_HIGH_C)>0.5  
+ & V(U2_LOW_C)>0.5   
+ & V(PG_DELAY2)>0.5, 1, 0 )  }
X_U2_U320         U2_NOCL_CHECK U2_N17336717 INVERTER
X_U2_U16         U2_N17335973 U2_N17335854 d_d1 PARAMS:
X_U2_U220         SSEND2 U2_N173350100 INVERTER
G_U2_ABM2I1         V5FILT CS2 VALUE { if(V(ENCIRD2) >0.5,-V(U2_CS_CURRENT),0) 
+    }
X_U2_U49         U2_N17336717 U2_N17336676 U2_NOCL_LATCH U2_N173364170
+  srnandlatchshp_basic PARAMS:
X_U2_S15    U2_DQOS PWRPD U2_TON U2_N17334176 DCAP_ch2_U2_S15 
X_U2_U213         U2_N17335157 U2_DRH1 BUFFER_PS PARAMS: VHI=1 VLO=0
+  VTHRESH=500E-3 TPLH=10E-9 TPHL=2E-9 TR=1E-9 TF=1E-9
X_U2_U3242         U2_LONG_TON U2_LUPB U2_RAMP_OFF U2_N17402504 $G_DPWR PWRPD
+  DFF
X_U2_U284         U2_LOWDRIVE_MUX U2_N17334201 U2_N17335142 AND
X_U2_U17         VREG5 VBST2 d_d2 PARAMS:
X_U2_U296         U2_N173336130 U2_TBLNKB U2_N17335184 NAND2_PS PARAMS: VHI=1
+  VLO=0 VTHRESH=500E-3 TPLH=1E-9 TPHL=1E-9 TR=1E-9 TF=1E-9
R_U2_R9         U2_LLO U2_N17338620  100  
X_U2_S12    U2_QRMP PWRPD U2_RMP PWRPD DCAP_ch2_U2_S12 
X_U2_U200         U2_XULQ U2_XULQ_100N_DELAY BUFFER_PS PARAMS: VHI=1 VLO=0
+  VTHRESH=500E-3 TPLH=100E-9 TPHL=1E-9 TR=1E-9 TF=1E-9
R_U2_R30         U2_N17333820 VFB2  125k TC=0,0 
X_U2_U295         U2_N17334701 U2_DRVHPREBIAS U2_HIDRIVE NAND2_PS PARAMS: VHI=1
+  VLO=0 VTHRESH=500E-3 TPLH=1E-9 TPHL=1E-9 TR=1E-9 TF=1E-9
X_U2_U14         CS2 V5FILT d_d1 PARAMS:
X_U2_U242         U2_BLNKM U2_N17334246 U2_OCLDIS OR
X_U2_U247         U2_LOWREADY U2_N173361662 INVERTER
X_U2_U277         U2_ENLOW2 U2_N17335313 U2_N17335184 OR
X_U2_U309         U2_N17338088 U2_N17337270 U2_LBB AND
X_U2_U311         U2_DRH1 U2_N17337228 INVERTER
X_U2_U48         U2_UVS U2_N17335316 U2_UVLATCH U2_N173353250
+  srnandlatchshp_basic PARAMS:
X_U2_S14    U2_DQOS PWRPD U2_N17334176 PWRPD DCAP_ch2_U2_S14 
R_U2_R27         PWRPD U2_N173336130  1Meg  
E_U2_ABM22         U2_LUPB 0 VALUE { if( V(U2_ULQ_PWM)>0.5,  
+ V(U2_N17334857),  
+ V(U2_N17334824) )  }
X_U2_S2    U2_DISCH PWRPD SW2 PWRPD DCAP_ch2_U2_S2 
X_U2_S20    U2_ULQ PWRPD U2_N17336632 PWRPD DCAP_ch2_U2_S20 
X_U2_U194         U2_N17351736 U2_N17357804 BUFFER_PS PARAMS: VHI=1 VLO=0
+  VTHRESH=500E-3 TPLH=85n TPHL=85n TR=1E-9 TF=1E-9
V_U2_V7         U2_N17335973 U2_N17335970 -.25
X_U2_U201         U2_XULQ U2_XULQ_1100N_DELAY BUFFER_PS PARAMS: VHI=1 VLO=0
+  VTHRESH=500E-3 TPLH=1.1u TPHL=1E-9 TR=1E-9 TF=1E-9
X_U2_U306         U2_ON U2_N17337077 INVERTER
X_U2_U335         U2_ULQ_CHECK1 U2_ULQ_EXIT U2_N17335717 U2_N17335774
+  SRLATCHRHP_BASIC_GEN PARAMS: VDD=1 VSS=0 VTHRESH=0.5
X_U2_S8    U2_DRL1 PWRPD VREG5 DRVL2 DCAP_ch2_U2_S8 
X_U2_U299         U2_N17333690 U2_TRES U2_TRES U2_N17333694 NAND3_PS PARAMS:
+  VHI=1 VLO=0 VTHRESH=500E-3 TPLH=1E-9 TPHL=1E-9 TR=1E-9 TF=1E-9
X_U2_U337         U2_PGOOD1 U2_PGOOD_N INVERTER
C_U2_C12         PWRPD U2_N17333820  1p IC=0 TC=0,0 
X_U2_U285         U2_N17334573 U2_N173354981 U2_N17334758 AND
V_U2_V92         U2_N17333471 PWRPD 20m
R_U2_R45         PWRPD U2_N17334176  13k TC=0,0 
E_U2_ABM5         U2_P675VREF 0 VALUE { V(U2_V2P0) * (0.6+(V(U2_PGOOD_N)*0.3)) 
+    }
R_U2_R6         PWRPD U2_PWMMODE  1Meg TC=0,0 
X_U2_U308         U2_OVP U2_LOOPB U2_LOOP_RAW OR
X_U2_U196         U2_LUPB_DEL U2_N17334824 BUFFER_PS PARAMS: VHI=1 VLO=0
+  VTHRESH=500E-3 TPLH=70E-9 TPHL=70E-9 TR=1E-9 TF=1E-9
X_U2_U248         U2_HIREADY U2_N173369312 INVERTER
C_U2_C3         PWRPD U2_N17334959  1.25n IC=0 
X_U2_U189         U2_N17334698 U2_LOWREADY INV_PS PARAMS: VHI=1 VLO=0
+  VTHRESH=500E-3 TPLH=270E-9 TPHL=10E-9 TR=1E-9 TF=1E-9
X_U2_U263         U2_SSENDSET ENCIRD2 ENCIRD2 U2_N17338543 NAND3_PS PARAMS:
+  VHI=1 VLO=0 VTHRESH=500E-3 TPLH=1E-9 TPHL=1E-9 TR=1E-9 TF=1E-9
E_U2_ABM32         U2_UVS 0 VALUE { if( V(U2_UVP_DELAY)> 0.5 &  
+ V(U2_UVD)>0.5,1,0)   }
C_U2_C177         U2_N17335597 U2_N17335588  3p  
C_U2_C180         U2_N17335965 U2_N17335569  3p  
X_U2_S18    U2_ULQ PWRPD U2_N17336632 U2_N17336513 DCAP_ch2_U2_S18 
R_U2_R11         PWRPD U2_N173353250  1Meg  
E_U2_ABM35         U2_OVP 0 VALUE { if( V(U2_OVLATCH)> 0.5 &  
+ V(ENCIRD2)>0.5,1,0)   }
X_U2_u20_U241         U2_u20_N13639852 U2_u20_N13640653 INVERTER
X_U2_u20_U254         U2_ON U2_SHOTIN U2_u20_N13636996 AND
X_U2_u20_U245         U2_u20_N13639852 U2_SHOTIN U2_SHOT_OUT OR
X_U2_u20_U247         U2_u20_N13636996 U2_u20_CLKD INVERTER
X_U2_u20_U253         U2_u20_N13634238 U2_C_IN U2_u20_N13634611 AND
R_U2_u20_R28         U2_u20_N136958671 PWRPD  1e8 TC=0,0 
X_U2_u20_U259         U2_u20_N136958671 U2_u20_N13670242 U2_u20_CLKD
+  U2_LOOP_RAW U2_u20_N13681583 PWRPD dffsr_rhpbasic1v PARAMS:
X_U2_u20_U244         U2_u20_Q0 U2_u20_Q1 U2_u20_N13639852 OR
X_U2_u20_u2_S11    U2_u20_N13636996 PWRPD U2_u20_u2_N8032860 U2_u20_u2_N8035344
+  SDC_U2_u20_u2_S11 
X_U2_u20_u2_U245         U2_u20_u2_N8035344 U2_u20_Q0 INVERTER
X_U2_u20_u2_U242         U2_u20_N13636996 U2_u20_u2_CLKZ INVERTER
X_U2_u20_u2_U244         U2_u20_u2_N8033152 U2_u20_CLRZ U2_u20_u2_N8032860
+  NAND2_BASIC
R_U2_u20_u2_R31         PWRPD U2_u20_u2_N8032072  1e11 TC=0,0 
X_U2_u20_u2_S12    U2_u20_u2_CLKZ PWRPD U2_u20_u2_N8037538 U2_u20_u2_N8035344
+  SDC_U2_u20_u2_S12 
X_U2_u20_u2_U248         U2_u20_u2_N8035851 U2_u20_CLRZ U2_u20_u2_N8037538
+  NAND2_BASIC
R_U2_u20_u2_R29         PWRPD U2_u20_u2_N8032860  1e11 TC=0,0 
X_U2_u20_u2_U246         U2_u20_u2_N8035344 U2_u20_u2_N8035851 INVERTER
X_U2_u20_u2_S9    U2_u20_u2_CLKZ PWRPD U2_u20_u2_N8032072 U2_u20_u2_N8032363
+  SDC_U2_u20_u2_S9 
X_U2_u20_u2_U249         U2_u20_CO U2_u20_u2_N13650456 INVERTER
X_U2_u20_u2_S10    U2_u20_N13636996 PWRPD U2_u20_u2_N8032363 U2_u20_u2_N8032860
+  SDC_U2_u20_u2_S10 
X_U2_u20_u2_U240         U2_u20_N13640653 U2_u20_u2_SZ INVERTER
X_U2_u20_u2_U243         U2_u20_u2_N8032363 U2_u20_u2_N8033152 INVERTER
X_U2_u20_u2_U250         U2_u20_N13641400 U2_u20_u2_N13650464 INVERTER
R_U2_u20_u2_R28         PWRPD U2_u20_u2_N8032363  1e11 TC=0,0 
E_U2_u20_u2_ABM1         U2_u20_u2_N8032072 0 VALUE { if ( V(U2_u20_N13640653)>
+  0.5,  
+ V(U2_u20_u2_N13650456),  
+ V(U2_u20_u2_N13650464) )   }
X_U2_u20_u2_U247         U2_u20_u2_N8035851 U2_u20_N13639199 INVERTER
X_U2_u20_U255         U2_u20_N13670242 U2_N17337987 U2_u20_CLRZ AND
X_U2_u20_u3_S11    U2_u20_N13636996 PWRPD U2_u20_u3_N8032860 U2_u20_u3_N8035344
+  SDC_U2_u20_u3_S11 
X_U2_u20_u3_U245         U2_u20_u3_N8035344 U2_u20_Q1 INVERTER
X_U2_u20_u3_U242         U2_u20_N13636996 U2_u20_u3_CLKZ INVERTER
X_U2_u20_u3_U244         U2_u20_u3_N8033152 U2_u20_CLRZ U2_u20_u3_N8032860
+  NAND2_BASIC
R_U2_u20_u3_R31         PWRPD U2_u20_u3_N8032072  1e11 TC=0,0 
X_U2_u20_u3_S12    U2_u20_u3_CLKZ PWRPD U2_u20_u3_N8037538 U2_u20_u3_N8035344
+  SDC_U2_u20_u3_S12 
X_U2_u20_u3_U248         U2_u20_u3_N8035851 U2_u20_CLRZ U2_u20_u3_N8037538
+  NAND2_BASIC
R_U2_u20_u3_R29         PWRPD U2_u20_u3_N8032860  1e11 TC=0,0 
X_U2_u20_u3_U246         U2_u20_u3_N8035344 U2_u20_u3_N8035851 INVERTER
X_U2_u20_u3_S9    U2_u20_u3_CLKZ PWRPD U2_u20_u3_N8032072 U2_u20_u3_N8032363
+  SDC_U2_u20_u3_S9 
X_U2_u20_u3_U249         U2_u20_S U2_u20_u3_N13650456 INVERTER
X_U2_u20_u3_S10    U2_u20_N13636996 PWRPD U2_u20_u3_N8032363 U2_u20_u3_N8032860
+  SDC_U2_u20_u3_S10 
X_U2_u20_u3_U240         U2_u20_N13640653 U2_u20_u3_SZ INVERTER
X_U2_u20_u3_U243         U2_u20_u3_N8032363 U2_u20_u3_N8033152 INVERTER
X_U2_u20_u3_U250         U2_u20_N13639471 U2_u20_u3_N13650464 INVERTER
R_U2_u20_u3_R28         PWRPD U2_u20_u3_N8032363  1e11 TC=0,0 
E_U2_u20_u3_ABM1         U2_u20_u3_N8032072 0 VALUE { if ( V(U2_u20_N13640653)>
+  0.5,  
+ V(U2_u20_u3_N13650456),  
+ V(U2_u20_u3_N13650464) )   }
X_U2_u20_u3_U247         U2_u20_u3_N8035851 U2_u20_N13641212 INVERTER
X_U2_u20_U248         U2_ON U2_u20_N13681583 INVERTER
X_U2_u20_U5         U2_u20_N13639199 U2_u20_N13641212 U2_u20_N13641400
+  NOR2_BASIC
X_U2_u20_U250         U2_OCM U2_B_IN U2_u20_N13634634 AND
X_U2_u20_U251         U2_OCM U2_B_IN U2_u20_N13634238 XOR2_BASIC
X_U2_u20_U243         U2_u20_N13634611 U2_u20_N13634634 U2_u20_CO OR
X_U2_u20_U252         U2_u20_N13634238 U2_C_IN U2_u20_S XOR2_BASIC
X_U2_u20_U4         U2_u20_N13639199 U2_u20_Q1 U2_u20_N13639471 NOR2_BASIC
X_U2_U292         U2_OCM U2_N17333517 U2_TBLNKB ENCIRD2 NAND3_PS PARAMS: VHI=1
+  VLO=0 VTHRESH=500E-3 TPLH=1E-9 TPHL=1E-9 TR=1E-9 TF=1E-9
R_U2_R24         PWRPD U2_N17338684  1Meg  
E_U2_ABM62         U2_ULQ_CHECK 0 VALUE { IF(V(U2_N17335970)>0.5,1,0)    }
R_U2_R2333         U2_N17335750 U2_N173357111  20 TC=0,0 
E_U2_ABM25         U2_NCL 0 VALUE { if( V(DRVL2)>0.5   
+ & V(U2_LLO) > V(U2_N17334277),  
+ 1,0)  }
R_U2_R14         PWRPD U2_N17334507  1Meg  
E_U2_ABM14         U2_N17338620 0 VALUE { if( V(DRVL2)>2.5 & V(SW2) <0.5,  
+ V(SW2),  
+ V(PWRPD) )  }
X_U2_U286         U2_DRH1 U2_N17334514 INVERTER
X_U2_U279         U2_HIDRIVE U2_N173363492 INVERTER
X_U2_U15         U2_N17334959 V5FILT d_d1 PARAMS:
X_U2_U240         U2_NCL U2_N17334274 INVERTER
X_U2_U262         U2_ENLOW2 U2_ZC U2_TBLNKB ENCIRD2 NAND3_PS PARAMS: VHI=1
+  VLO=0 VTHRESH=500E-3 TPLH=1E-9 TPHL=1E-9 TR=1E-9 TF=1E-9
V_U2_V87         U2_N17334277 U2_MODECHECK -1m
E_U2_E2         PWRPD U2_N17333658 PWRPD U2_OCLTHR -1
E_U2_ABM15         U2_REFEFF 0 VALUE { ( V(U2_RAMP)  
+ + V(SS2) )   }
E_U2_E1         PWRPD U2_OCLTHR PWRPD CS2 -.125
E_U2_ABM61         U2_LLAVG_NEW 0 VALUE { if(V(U2_LLAVG)>0.3,V(U2_LLAVG),0.3)  
+   }
X_U2_U302         U2_N17338492 U2_XULQ U2_BLNKM AND
X_U2_S6    U2_DRH2 PWRPD DRVH2 SW2 DCAP_ch2_U2_S6 
X_U2_U340         U2_ULQ U2_LUPB U2_N17338676 U2_N17338684 SRLATCHRHP_BASIC_GEN
+  PARAMS: VDD=1 VSS=0 VTHRESH=0.5
X_U2_U23          VFB2 U2_1P125VREF U2_HYSTVAL U2_OV COMP_HYS
X_U2_U50         U2_OVS U2_N17334507 U2_OVLATCH U2_N17334504
+  srnandlatchshp_basic PARAMS:
X_U2_U197         U2_LUPB_DEL U2_N17334857 BUFFER_PS PARAMS: VHI=1 VLO=0
+  VTHRESH=500E-3 TPLH=140E-9 TPHL=70E-9 TR=1E-9 TF=1E-9
X_U2_U250         U2_OVP U2_N17334571 INVERTER
R_U2_R19         PWRPD U2_N17337492  1Meg  
X_U2_U193         U2_HIREADY U2_DQOS_IN BUFFER_PS PARAMS: VHI=1 VLO=0
+  VTHRESH=500E-3 TPLH=2E-9 TPHL=2E-9 TR=1E-9 TF=1E-9
E_U2_ABM33         U2_OVS 0 VALUE { if( V(ENCIRD2)> 0.5 &  
+ V(U2_OVD)>0.5,1,0)   }
X_U2_U251         U2_LUPB U2_LUPB U2_N173363151 OR
X_U2_U252         U2_XULQ_1100N_DELAY U2_N17338492 INVERTER
R_U2_R47         U2_N17335588 U2_LL_IN  6Meg TC=0,0 
X_U2_U260         U2_OCL U2_N17334411 U2_TBLNKB ENCIRD2 NAND3_PS PARAMS: VHI=1
+  VLO=0 VTHRESH=500E-3 TPLH=1E-9 TPHL=1E-9 TR=1E-9 TF=1E-9
X_U2_U217         U2_DQOS U2_N17335195 U2_TOS OR
X_U2_U244         U2_N17334698 U2_N17334956 INVERTER
X_U2_U52         PGOOD2 U2_N17337492 U2_PGOOD1 U2_N17337495
+  srnandlatchshp_basic PARAMS:
E_U2_ABM11         U2_N17333628 0 VALUE { if( V(U2_N17337139)   
+ >V(U2_LLO) ,1,0)   }
X_U2_U199         U2_ULQ U2_ULQ_DEL BUFFER_PS PARAMS: VHI=1 VLO=0
+  VTHRESH=500E-3 TPLH=1nE-9 TPHL=100E-9 TR=1E-9 TF=1E-9
X_U2_U281         U2_DRVH_EVENT U2_N17335103 U2_DRVHPREBIAS AND
X_U2_U265         U2_ON U2_ONSET U2_ONSET U2_N17334103 NAND3_PS PARAMS: VHI=1
+  VLO=0 VTHRESH=500E-3 TPLH=1E-9 TPHL=1E-9 TR=1E-9 TF=1E-9
X_U2_U256         U2_EN_VIN_TONEXT PWRPD U2_N17336432 AND
X_U2_U330         U2_ULQ U2_LUPB_DEL U2_ULQ_EXIT AND
X_U2_U249         U2_ON1 U2_ONB INVERTER
E_U2_E7         U2_RMPIN PWRPD U2_RMP PWRPD 1
E_U2_ABM18         U2_NOCL_CHECK 0 VALUE { if( V(U2_LLO)  
+ >V(U2_N17333658) ,0,1)   }
C_U2_C13111         PWRPD U2_N17335750  1n IC=0 TC=0,0 
X_U2_U287         U2_DRH2 U2_N17334743 INVERTER
X_U2_U312         U2_NOCL_CHECK U2_NOCL_CHECK U2_N17337270 OR
R_R11         PWRPD N161991910  1Meg  
X_S1    PGEN PWRPD PGOOD PWRPD TPS51285B_TRANS_S1 
X_U48         N15656866 N15656792 N15656952 N161991910 srnandlatchshp_basic
+  PARAMS:
C_C11         PWRPD VREF  1u  
V_V1         N15159302 PWRPD 5
E_ABM1         TODELAY 0 VALUE { if( V(PGOOD1)>0.5 &  
+ V(PGOOD2) >0.5,1,0)   }
X_U4_U14         U4_N13787296 V5FILT d_d1 PARAMS:
V_U4_V10         U4_N16528336 PWRPD 4.38
E_U4_ABM4         SS1 0 VALUE { if(V(U4_N13787296)>2, 2,V(U4_N13787296))    }
E_U4_ABM6         ENUVPG1 0 VALUE { if(V(U4_N13787296)>3.125, 1,0)    }
R_U4_R18         VREG5 V5FILT  3.32  
V_U4_V11         U4_N16528332 PWRPD 0.4
C_U4_C11         PWRPD V5FILT  1u IC=0 
E_U4_ABM7         ENUVPG2 0 VALUE { if(V(U4_N15130899)>3.125, 1,0)    }
G_U4_ABMII1         V5FILT U4_N13787296 VALUE { if(V(ENCIRD1) >0.5, {2.5u +
+  MODE* 7.5u},0)    }
E_U4_ABM5         SS2 0 VALUE { if(V(U4_N15130899)>2, 2,V(U4_N15130899))    }
E_U4_ABM3         SSEND2 0 VALUE { if(V(U4_N15130899)>2.5, 1,0)    }
E_U4_ABM2         SSEND1 0 VALUE { if(V(U4_N13787296)>2.5, 1,0)    }
E_U4_ABM53         U4_ENABLE1 0 VALUE { if( V(U4_N13776377)>0.5 &  
+ V(EN1)>1.6,1,0)   }
R_U4_R23         PWRPD SSEND2  1Meg  
R_U4_R22         PWRPD SSEND1  1Meg  