* PSpice Model Editor - Version 16.2.0
*$
*TPS56920
*****************************************************************************
* (C) Copyright 2013 Texas Instruments Incorporated. All rights reserved.                                            
*****************************************************************************
** This model is designed as an aid for customers of Texas Instruments.                                             
** TI and its licensors and suppliers make no warranties, either expressed                                           
** or implied, with respect to this model, including the warranties of                                                    
** merchantability or fitness for a particular purpose. The model is                                                      
** provided solely on an "as is" basis. The entire risk as to its quality                                                    
** and performance is with the customer                                                                                          
*****************************************************************************
*
** Released by: Analog eLab(TM) Design Center, Texas Instruments Inc.
* Part: TPS56920
* Date: 03MAR2014
* Model Type: Transient 
* Simulator: PSpice 
* Simulator Version: 16.2.0.p001
* EVM Order Number: 
* EVM Users Guide: 
* Datasheet: SLVSCB6-NOVEMBER 2013
* Model Version: Final 1.00
*
*****************************************************************************
*
* Updates:
*
* Final 1.00
* Release to Web.
*
***************************************************************************
.SUBCKT TPS56920_TRANS VREG5 VREFVALUE PGND_0 PGND_1 EN SS VBST
+MODE PGOOD VFB VIN VOUT PWRPAD SW_0 SW_1 SW_2 PVIN_0 PVIN_1 GND
+PARAMS: PGOODDELAY = 26.4u INT_CURRENTLIMIT = 15.16 HICCUPMODE = 1 ECO_MODE = 0
+ DAC = 25u UVP_LATCHOFF = 1 OVP_LATCHOFF = 1
X_S17    DRVH SW_0 PVIN SW_0 TPS56920_S17 
X_U13         N17163244 PVIN d_d1 PARAMS:
X_U9_U312         U9_N15333977 U9_DRH2 INV_PS PARAMS: VHI=1 VLO=0
+  VTHRESH=500E-3 TPLH=1E-9 TPHL=1E-9 TR=1E-9 TF=1E-9
X_U9_U283         U9_N15332713 U9_N167294361 U9_DRH2 AND
X_U9_S5    U9_DRH1 0 VBST DRVH DRIVER_U9_S5 
X_U9_S8    U9_DHR2 0 DRVL PGND_0 DRIVER_U9_S8 
E_U9_ABM3         HDR_PB 0 VALUE { if(V(DRVH)>5,1,0)    }
R_U9_R41         0 U9_N16719406  1Meg  
X_U9_U280         U9_LODRV U9_N167299742 INVERTER
X_U9_U310         U9_N15332713 U9_DRH1 INV_PS PARAMS: VHI=1 VLO=0
+  VTHRESH=500E-3 TPLH=1E-9 TPHL=1E-9 TR=1E-9 TF=1E-9
X_U9_U311         U9_N15332781 U9_DHR1 INV_PS PARAMS: VHI=1 VLO=0
+  VTHRESH=500E-3 TPLH=1E-9 TPHL=1E-9 TR=1E-9 TF=1E-9
X_U9_U274         ENCIR U9_DRVOFF INVERTER
X_U9_U275         U9_DRVOFF RESET HI_READY HI_READY HIDRV NOR4
X_U9_S7    U9_DHR1 0 VREG5 DRVL DRIVER_U9_S7 
X_U9_U282         HIDRV U9_N15333977 U9_DRH1 AND
X_U9_U288         ENCIR U9_N16728245 U9_LODRV AND
X_U9_U286         LOW_READY U9_PREBIAS 0 SSEND_SET U9_N16722981 NOR4
X_U9_U160         VREG5 VBST d_d1 PARAMS:
X_U9_S6    U9_DRH2 0 DRVH SW_0 DRIVER_U9_S6 
X_U9_U279         HIDRV U9_N167294361 INVERTER
R_U9_R40         0 U9_N16719731  1Meg  
X_U9_U313         U9_N15332657 U9_DHR2 INV_PS PARAMS: VHI=1 VLO=0
+  VTHRESH=500E-3 TPLH=1E-9 TPHL=1E-9 TR=1E-9 TF=1E-9
X_U9_U287         U9_N16721249 U9_N16722981 U9_N16728245 AND
R_U9_R25         VREG5 0  1e15 TC=0,0 
X_U9_U250         RESET U9_N16721249 INVERTER
X_U9_U576         HDR_PB U9_N16719406 U9_N16719731 U9_PREBIAS
+  srlatchrhp_basic_gen PARAMS: VDD=1 VSS=0 VTHRESH=.5
X_U9_U284         U9_LODRV U9_N15332657 U9_DHR1 AND
X_U9_U285         U9_N15332781 U9_N167299742 U9_DHR2 AND
V_V2         N17163837 SW_0 -250m
V_V3         PVIN PVIN_0 0Vdc
R_R9         LLC N16698695  1 TC=0,0 
C_C1         0 LLC  10n  TC=0,0 
X_H1    N16698673 PGND_0 N16698695 PGND_0 TPS56920_H1 
G_U6_ABMII5         VREG5 SS VALUE { if(V(ENCIR) > 0.5 & v(U6_OUT1)<0.5 &
+  v(U6_CUR_STOP) <0.5, (6u), 0)    }
E_U6_ABM63         VREF 0 VALUE {
+  if(v(U6_SSFIN)<0.99,if(V(MODE)>0.9,v(U6_VREFINT1),v(U6_VREFEXT)),if(V(MODE)>0.9,v(U6_VREFINT1),v(U6_VREFEXT1)))
+     }
X_U6_U586         U6_N17166182 U6_N17165644 U6_EN_RE AND
E_U6_ABM68         U6_N17165644 0 VALUE { if(v(EN)>0.6,1,0)    }
X_U6_U591         U6_N17164778 U6_N17164778 U6_N17164933 OR
X_U6_S1    U6_N17165224 0 U6_COUNT 0 SOFTSTART_U6_S1 
E_U6_ABM2         ENUVOP 0 VALUE { if(V(SS)>(V(VREF1)+0.1), 1,0)    }
V_U6_V3         U6_N17165205 0 0.1m
E_U6_ABM5         U6_N17164723 0 VALUE { IF({HICCUPMODE}>0.5 & (
+ {UVP_LATCHOFF}<0.5 | {OVP_LATCHOFF}<0.5) &  V(OVP)>0.5,1,0)    }
E_U6_ABM4         U6_N17165774 0 VALUE { (V(VREF1)*1.36)    }
R_U6_R5         U6_QOUT U6_N17165200  15500  
G_U6_ABMI1         0 SS VALUE { if(V(U6_OUT1)>0.5, If(V(U6_EDIT)>0.5 ,6u,0), 0)
+     }
X_U6_S7    U6_N17166058 0 VREFVALUE U6_VREFVALUE1 SOFTSTART_U6_S7 
C_U6_C8         0 U6_EDIT  10n IC=0 
E_U6_ABM74         U6_N17164794 0 VALUE { if(V(U6_N17164792)>0.9,1,0)     }
X_U6_U10         SS VREG5 d_d1 PARAMS:
X_U6_S3    U6_N17165075 0 U6_N17165200 U6_EDIT SOFTSTART_U6_S3 
X_U6_U23         U6_N17165205 SS U6_N17165341 COMP_BASIC_GEN PARAMS: VDD=1
+  VSS=0 VTHRESH=0.5
C_U6_C5         0 U6_N17165576  1n  TC=0,0 
X_U6_U582         U6_N17165893 U6_N17164938 SSENDN N17165796
+  srlatchrhp_basic_gen PARAMS: VDD=1 VSS=0 VTHRESH=0.5
E_U6_ABM3         U6_N17164882 0 VALUE { IF({HICCUPMODE}>0.5 & (
+ {UVP_LATCHOFF}>0.5 | {OVP_LATCHOFF}>0.5) &  V(UVP)>0.5,1,0)    }
V_U6_V7         U6_N17165265 0 8.2
X_U6_U590         U6_AUTO U6_N17166142 U6_N17166188 0 srlatchrhp_basic_gen
+  PARAMS: VDD=1 VSS=0 VTHRESH=0.5
E_U6_ABM1         U6_N17165192 0 VALUE {
+  if(v(U6_OUT1)>0.5,(if(v(U6_QOUT)>0.5,1,0)),1)    }
R_U6_R33         SSENDN U6_N17165576  10  
C_U6_C6         0 U6_COUNT  1n IC=0 
X_U6_S9    U6_N17166188 0 SS 0 SOFTSTART_U6_S9 
X_U6_U8         0 U6_COUNT d_d PARAMS:
E_U6_ABM6         U6_N17165075 0 VALUE { if(v(U6_COUNT)>1,1,0)    }
R_U6_R4         U6_N17165347 U6_N17165224  25  
E_U6_ABM71         U6_N17164778 0 VALUE { if( {UVP_Latchoff}<0.5 & 
+ {OVP_Latchoff}<0.5 & {HICCUPMODE}<0.5,V(U6_EN_RE),0)    }
X_U6_U588         U6_OUT1 U6_CUR_STOP_LATCH RESET OR
X_U6_U17         U6_EDIT U6_N171650680 INV_BASIC_GEN PARAMS: VDD=1 VSS=0
+  VTHRESH=500E-3
X_U6_S2    U6_N17165192 0 SS 0 SOFTSTART_U6_S2 
C_U6_C9         0 U6_N17165224  1n IC=0 
E_U6_ABM61         U6_VREFEXT 0 VALUE { if(V(SS) >0.6,0.6,V(SS))    }
E_U6_ABM73         U6_N17164834 0 VALUE { if(v(VOUT_VFB)<0.01,1,0)    }
G_U6_ABMI2         0 U6_COUNT VALUE { If(V(U6_OUT)>0.5,50m,0)    }
E_U6_ABM67         U6_LATCH 0 VALUE { if((v(UVP) >0.5 | v(OVP) >0.5) & 
+ {UVP_Latchoff}<0.5 & {OVP_Latchoff}<0.5 & {HICCUPMODE}<0.5,1,0)    }
E_U6_ABM60         U6_N17166058 0 VALUE { IF(V(ENCIR)<0.5 | V(PGOOD)>0.5 ,1, 0)
+     }
X_U6_U584         U6_CUR_STOP U6_N17164933 U6_CUR_STOP_LATCH N17165731
+  srlatchrhp_basic_gen PARAMS: VDD=1 VSS=0 VTHRESH=0.5
E_U6_ABM59         VREF1 0 VALUE { IF(V(MODE)>0.9, ((V(U6_VREFVALUE1)/1.83 )),
+  0.6)    }
X_U6_S8    U6_CUR_STOP_LATCH 0 SS 0 SOFTSTART_U6_S8 
X_U6_U585         U6_N17165644 U6_N17166182 INV_BASIC_GEN PARAMS: VDD=1 VSS=0
+  VTHRESH=500E-3
X_U6_U583         U6_N17165848 U6_VREFINT d_d1 PARAMS:
X_U6_U593         U6_N17164794 U6_N17164834 U6_AUTO_RESET AND
E_U6_ABM69         U6_AUTO 0 VALUE { if(v(LATCHOFF_OUTPUT) >0.1 & 
+ {OVP_Latchoff}>0.5 & {UVP_Latchoff}>0.5 & {HICCUPMODE}<0.5,1,0)    }
X_U6_U4         U6_EDIT U6_N17165288 U6_OUT AND2_BASIC_GEN PARAMS: VDD=1 VSS=0
+  VTHRESH=500E-3
X_U6_U18         SS U6_N17165774 U6_N17165194 COMP_BASIC_GEN PARAMS: VDD=1
+  VSS=0 VTHRESH=0.5
E_U6_ABM62         U6_VREFINT1 0 VALUE { if((V(U6_N17165576))
+  <0.9,MIN(V(SS),(v(U6_VREFVALUE1)/1.83)),v(U6_VREFINT))    }
X_U6_U594         U6_N17164882 U6_N17164723 U6_UVP_HICCUP OR
X_U6_U595         RESET U6_EN_RE U6_N17164912 U6_N17164938 OR3_BASIC_GEN
+  PARAMS: VDD=1 VSS=0 VTHRESH=500E-3
X_U6_U20         U6_EDIT U6_QOUT d_d PARAMS:
E_U6_ABM72         U6_N17166142 0 VALUE { if(v(OCL_OVER) <0.2 & 
+ {OVP_Latchoff}>0.5 & {UVP_Latchoff}>0.5 & {HICCUPMODE}<0.5,1,0)    }
R_U6_R32         U6_N171656231 U6_VREFINT  {{DAC}*4.51}  
X_U6_U581         SS U6_N17165910 U6_N17165893 COMP_BASIC_GEN PARAMS: VDD=1
+  VSS=0 VTHRESH=0.5
X_U6_U5         U6_N17165341 U6_OUT1 U6_N17165162 AND2_BASIC_GEN PARAMS: VDD=1
+  VSS=0 VTHRESH=500E-3
X_U6_U3         U6_N17165162 U6_N17165194 U6_QOUT N17165290
+  srlatchrhp_basic_gen PARAMS: VDD=1 VSS=0 VTHRESH=0.5
C_U6_C3         0 U6_N17165893  1n IC=1 TC=0,0 
C_U6_C1         0 U6_VREFINT  0.2 IC=0 TC=0,0 
E_U6_ABM75         U6_N17164912 0 VALUE { if(v(LATCHOFF_OUTPUT) >0.1 & 
+ {OVP_Latchoff}>0.5 & {UVP_Latchoff}>0.5 & {HICCUPMODE}<0.5,1,0)    }
E_U6_ABM54         U6_N171656231 0 VALUE {
+  if(V(MODE)>0.5,((v(U6_VREFVALUE1)/1.83)),V(VOUT_INT))    }
X_U6_U21         U6_COUNT U6_N17165265 U6_N17165197 COMP_BASIC_GEN PARAMS:
+  VDD=1 VSS=0 VTHRESH=0.5
E_U6_ABM66         U6_N17165848 0 VALUE { if(v(MODE)<0.5,v(VOUT_INT),0)    }
E_U6_ABM65         U6_N17165082 0 VALUE { if(V(MODE)<0.5,v(U6_VREFEXT),V(VFB)) 
+     }
C_U6_C2         0 U6_VREFVALUE1  1n IC=0 TC=0,0 
X_U6_U589         U6_N17165648 U6_VREFEXT1 d_d1 PARAMS:
V_U6_V6         U6_N17165258 0 35V
E_U6_ABM70         U6_N17165648 0 VALUE { if(v(MODE)>0.5,v(VFB),0)    }
R_U6_R39         U6_N17164834 U6_N17164792  1 TC=0,0 
R_U6_R36         VOUT_INT VOUT  41.73k  
X_U6_U22         U6_UVP_HICCUP U6_N17165197 U6_OUT1 U6_N17165347
+  srlatchrhp_basic_gen PARAMS: VDD=1 VSS=0 VTHRESH=0.5
C_U6_C4         0 U6_VREFEXT1  0.2 IC=0 TC=0,0 
X_U6_U587         U6_LATCH U6_LATCH U6_CUR_STOP OR
R_U6_R34         U6_N17165082 U6_VREFEXT1  {{DAC}*4.51}  
C_U6_C11         0 U6_N17164792  20u IC=0 TC=0,0 
E_U6_ABM64         U6_N17165910 0 VALUE { (v(VREF1)-(0.1m))    }
R_U6_R3         U6_N171650680 U6_N17165288  25  
R_U6_R38         SSENDN U6_SSFIN  40k  
R_U6_R37         0 VOUT_INT  50.27K  
R_U6_R22         0 ENUVOP  1Meg  
C_U6_C7         0 U6_N17165288  1n IC=0 
C_U6_C10         0 U6_SSFIN  1n IC=1 
X_U6_U9         U6_COUNT U6_N17165258 d_d PARAMS:
R_R7         GND 0  1m TC=0,0 
X_S18    DRVL PGND_0 SW_0 N16698673 TPS56920_S18 
E_U3_ABM37         OVPX 0 VALUE { if(V(VOINFO) >7,1,0)    }
R_U3_R38         U3_VFB_SW 0  1e11 TC=0,0 
X_U3_U304         U3_N16809903 U3_N16798050 U3_N16797132 AND
E_U3_E7         U3_RMPIN 0 U3_RMP 0 1
E_U3_E10         VOINFO 0 U3_N16436443 0 1
E_U3_E12         U3_N16436209 0 SW_0 0 1
E_U3_ABM52         VOUT_VFB 0 VALUE { if(V(MODE) >0.9,v(VOUT_INT),v(VFB))    }
R_U3_R10         U3_S_W U3_N16436209  396k TC=0,0 
E_U3_ABM10         U3_N16829194 0 VALUE { if( V(U3_VREF+RAMP)  
+ >V(U3_VFB_SW) ,1,0)   }
C_U3_C9         0 U3_N16436443  4.6p IC=0 TC=0,0 
R_U3_R30         0 U3_N16420643  1e8 TC=0,0 
X_U3_U258         LOOPB U3_N15335853 TBLNKB ENCIR NAND3_PS PARAMS: VHI=1 VLO=0
+  VTHRESH=500E-3 TPLH=1E-9 TPHL=1E-9 TR=1E-9 TF=1E-9
X_U3_U242         U3_N16796237 U3_N16797132 U3_N16796945 OR
G_U3_ABMII1         VREG5 U3_RMP VALUE { if(V(ENCIR)>0.5, 28n,0)    }
X_U3_U257         U3_N15335853 U3_LBB U3_LBB LOOPB NAND3_PS PARAMS: VHI=1 VLO=0
+  VTHRESH=500E-3 TPLH=1E-9 TPHL=1E-9 TR=1E-9 TF=1E-9
X_U3_U303         U3_N16795880 U3_N16829194 U3_N16796237 AND
E_U3_ABM15         U3_VREF+RAMP 0 VALUE { V(VREF)  
+ + V(U3_RAMP)   }
C_U3_C15         0 U3_N16434986  500f  
R_U3_R32         U3_VFB_SW U3_N16435024  2.8k TC=0,0 
G_U3_G1         U3_VFB_SW 0 U3_S_W U3_N16434986 {-0.8/330k}
X_U3_U239         U3_N16796945 U3_N15336516 INVERTER
E_U3_ABM38         OVPX1 0 VALUE { if(V(VOUT) >1.87,1,0)    }
R_U3_R39         VOINFO U3_N16434986  56k  
C_U3_C14         0 U3_S_W  1.8p IC=0 TC=0,0 
C_U3_C8         0 U3_N16436435  4.6p IC=0 TC=0,0 
R_U3_R31         0 U3_QRMP  1e8 TC=0,0 
R_U3_R6         U3_N16436435 U3_S_W  800k TC=0,0 
E_U3_ABM48         VOINFO1 0 VALUE { V(VOINFO) * 0.5    }
C_U3_C10         0 U3_RMP  4p IC=0 TC=0,0 
E_U3_E8         U3_N16435024 0 VOUT_VFB 0 1
E_U3_ABM55         U3_N16809903 0 VALUE { IF(V(NCL)<0.5,1,0)    }
X_U3_U241         BLNKM U3_N15336516 U3_LBB OR
X_U3_U302         HDR_PB U3_QRMP U3_N16420643 MONOPOS_PS PARAMS: PW=10n
E_U3_ABM46         U3_RAMP 0 VALUE { if(V(ENCIR)>0.5,   
+ LIMIT((V(U3_RMPIN)-0.01),-10m,5m),0)   }
R_U3_R7         U3_N16436443 U3_N16436435  800k TC=0,0 
E_U3_ABM54         U3_N16798050 0 VALUE { IF({ECO_MODE}==0,1,0)    }
X_U3_S12    U3_QRMP 0 U3_RMP 0 DCAP_PWM_U3_S12 
R_U3_R29         0 U3_RMP  1e8 TC=0,0 
X_U3_U240         OVP U3_N16795880 INVERTER
R_R32         N17163837 N17163244  1u TC=0,0 
X_U7_U311         U7_N16764690 ENUVOP OVP AND
R_U7_R37         0 RESET  1E11  
X_U7_U310         ENCIR U7_OV U7_N16764690 AND
X_U7_U309         U7_N16242671 U7_N16242831 UVP AND
X_U7_U578         ENUVOP RESET U7_N16242671 U7_N16250842 srlatchrhp_basic_gen
+  PARAMS: VDD=1 VSS=0 VTHRESH=.5
E_U7_ABM5         U7_N16242831 0 VALUE {  if(V(VOUT_VFB) < V(VREF) * 0.60, 1,0)
+     }
E_U7_ABM6         U7_OV 0 VALUE { if(V(VOUT_VFB) > V(VREF) * 1.25, 1,0)    }
X_U7_S12    ENCIR 0 SW_0 0 FAULTS_UVOVP_U7_S12 
R_U7_R38         0 U7_N16250842  1E11  
E_U1_ABM19         ENCIR 0 VALUE { if( V(U1_ENSW)>0.5  
+ & V(U1_V5INOK)>0.5,1,0)   }
C_U1_C1         0 EN  1p IC=0 TC=0,0 
R_U1_R4         U1_REG5 U1_ENVREG5  1.0  
V_U1_V5         U1_N16675736 0 1.25
X_U1_U15          VREG5 U1_V5INOK COMP_HYS2 PARAMS:  TH=3.9V HYS=0.56V
X_U1_U7         EN U1_N16673883 U1_N16675736 U1_ENSW COMPHYS_BASIC_GEN PARAMS:
+  VDD=1 VSS=0 VTHRESH=0.5
V_U1_V1         U1_N16673883 0 1.85
C_U1_C5         0 U1_REG5  100p  
X_U1_S1    U1_ENVREG5 0 VREG5 0 LDO_U1_S1 
G_U1_G2         U1_REG5 VREG5 TABLE { V(U1_REG5, VREG5) } 
+ ( (-10,-12m)(-1m,-10m)(0,0)(1m,60m)(10,70m) )
E_U1_ABM20         U1_ENVREG5 0 VALUE { if( V(U1_ENSW)>0.5  
+ & V(VIN)>3.75,LIMIT(V(VIN),0,5.5),0)   }
C_U5_C11         0 U5_TIME_OCL  3p IC=0 TC=0,0 
X_U5_U194         U5_START_DLY ILIM_LESS BUFFER_PS PARAMS: VHI=1 VLO=0
+  VTHRESH=.5 TPLH=10u TPHL=1u TR=1E-9 TF=1E-9
E_U5_E11         U5_N15343306 0 U5_OCL_HI 0 2
X_U5_U267         U5_OCL_16CYCLE U5_N16768865 BUF_DELAY_BASIC_GEN PARAMS: VDD=1
+  VSS=0 VTHRESH=0.5 DELAY=10u
E_U5_ABM4         U5_N16768693 0 VALUE { if(V(DRVH)>0.5,1,0)    }
X_U5_U260         OCL U5_N15333141 TBLNKB ENCIR NAND3_PS PARAMS: VHI=1 VLO=0
+  VTHRESH=500E-3 TPLH=1E-9 TPHL=1E-9 TR=1E-9 TF=1E-9
X_U5_U268         U5_N16768549 U5_N16768865 U5_N16769069 OR2_BASIC_GEN PARAMS:
+  VDD=1 VSS=0 VTHRESH=500E-3
X_U5_U15         U5_CLK U5_N16768795 INV_DELAY_BASIC_GEN PARAMS: VDD=1 VSS=0
+  VTHRESH=0.5 DELAY=25n
E_U5_ABM11         U5_N15333177 0 VALUE { if( V(U5_OCL_THR)  
+ >V(LLC) ,1,0)   }
R_U5_R2         0 U5_N16768919  1G TC=0,0 
X_U5_U243         BLNKM NCL U5_N15340257 OR
E_U5_ABM8         U5_OCL_16CYCLE 0 VALUE { if(V(U5_N16768919) >=15,1,0)    }
X_U5_U269         U5_OCL_HI U5_RSET U5_N16768679 U5_N16768527
+  srlatchrhp_basic_gen PARAMS: VDD=1 VSS=0 VTHRESH=0.5
R_U5_R9         U5_TIME_OCL U5_N15343306  1Meg TC=0,0 
E_U5_ABM50         U5_ECO 0 VALUE { if(ECO_MODE ==1,-1m, 0.2294)    }
X_U5_U270         U5_N16768795 U5_CLK U5_RSET NOR2_BASIC_GEN PARAMS: VDD=1
+  VSS=0 VTHRESH=500E-3
E_U5_ABM49         VO_TON 0 VALUE { if( V(ILIM_LESS)<0.5,   
+ V(VOINFO1), 0.33)   }
X_U5_U9         U5_N16768679 U5_CLK U5_N16768495 AND2_BASIC_GEN PARAMS: VDD=1
+  VSS=0 VTHRESH=500E-3
X_U5_U262         ZC U5_N15340307 TBLNKB ENCIR NAND3_PS PARAMS: VHI=1 VLO=0
+  VTHRESH=500E-3 TPLH=1E-9 TPHL=1E-9 TR=1E-9 TF=1E-9
E_U5_ABM52         LATCHOFF_OUTPUT 0 VALUE { if({hiccupmode} <0.5 & 
+ {UVP_latchoff} >0.5,v(U5_OCL_16CYCLE),0)    }
C_U5_C14         OCL_OVER 0  10n IC=0 TC=0,0 
E_U5_ABM51         U5_OCL_THR 0 VALUE { if(v(MODE)>0.5,
+ {-0.037*Int_currentlimit},-0.555)    }
C_U5_C13         U5_OCL_HI 0  10p IC=0 TC=0,0 
X_U5_S2    U5_N16769069 0 U5_N16768919 0 OCL_U5_S2 
R_U5_R42         U5_N15333177 U5_OCL_HI  200 TC=0,0 
E_U5_ABM47         U5_START_DLY 0 VALUE { if(V(U5_TIME_OCL) >0.5,1,0)    }
G_U5_ABMII7         0 U5_N16768919 VALUE { if(V(U5_N16768495) > 0.5 , 0.1, 0)  
+   }
R_U5_R43         U5_OCL_HI OCL_OVER  200 TC=0,0 
X_U5_U242         BLNKM U5_OCL_HI U5_OCL_DIS OR
X_U5_U261         U5_N15340307 U5_N15340257 U5_N15340257 ZC NAND3_PS PARAMS:
+  VHI=1 VLO=0 VTHRESH=500E-3 TPLH=1E-9 TPHL=1E-9 TR=1E-9 TF=1E-9
C_U5_C15         U5_N16768919 0  5n IC=0 TC=0,0 
X_U5_U11         U5_N16768693 U5_N16768689 INV_DELAY_BASIC_GEN PARAMS: VDD=1
+  VSS=0 VTHRESH=0.5 DELAY=50n
X_U5_U8         U5_N16768527 U5_CLK U5_N16768549 AND2_BASIC_GEN PARAMS: VDD=1
+  VSS=0 VTHRESH=500E-3
X_U5_U16         0 U5_N16768919 d_d1 PARAMS:
X_U5_U259         U5_N15333141 U5_OCL_DIS U5_OCL_DIS OCL NAND3_PS PARAMS: VHI=1
+  VLO=0 VTHRESH=500E-3 TPLH=1E-9 TPHL=1E-9 TR=1E-9 TF=1E-9
E_U5_ABM12         NCL 0 VALUE { if( V(LLC)  
+ > V(U5_ECO),0,1)   }
X_U5_U12         U5_N16768689 U5_N16768693 U5_CLK AND2_BASIC_GEN PARAMS: VDD=1
+  VSS=0 VTHRESH=500E-3
R_R11         SW_0 SW_2  1m  
X_U4_U247         LOW_READY U4_N167166462 INVERTER
X_U4_U277         ZC U4_N16713540 U4_N16713570 OR
X_U4_U192         DRVL U4_N16714228 BUFFER_PS PARAMS: VHI=1 VLO=0 VTHRESH=2.5
+  TPLH=2n TPHL=5E-9 TR=1E-9 TF=1E-9
X_U4_U295         U4_CONT U4_HI_DLY HIDRV NAND2_PS PARAMS: VHI=1 VLO=0
+  VTHRESH=500E-3 TPLH=1E-9 TPHL=1E-9 TR=1E-9 TF=1E-9
X_U4_U188         U4_MIN_OFF U4_N167165180 BUFFER_PS PARAMS: VHI=1 VLO=0
+  VTHRESH=500E-3 TPLH=10E-9 TPHL=30E-9 TR=1E-9 TF=1E-9
X_U4_U246         U4_N167165180 TBLNKB INVERTER
X_U4_U300         U4_ONG U4_N167166001 INV_PS PARAMS: VHI=1 VLO=0
+  VTHRESH=500E-3 TPLH=1E-9 TPHL=1E-9 TR=1E-9 TF=1E-9
X_U4_U265         U4_ON U4_ONSET U4_ONSET U4_N16713466 NAND3_PS PARAMS: VHI=1
+  VLO=0 VTHRESH=500E-3 TPLH=1E-9 TPHL=1E-9 TR=1E-9 TF=1E-9
X_U4_U273         SSEND_SET U4_CONT SSENDN U4_N16714514 NAND3_BASIC_GEN PARAMS:
+  VDD=1 VSS=0 VTHRESH=500E-3
X_U4_U294         HI_READY U4_ON U4_ON1 NAND2_PS PARAMS: VHI=1 VLO=0
+  VTHRESH=500E-3 TPLH=1E-9 TPHL=1E-9 TR=1E-9 TF=1E-9
X_U4_U278         HI_READY U4_N16713506 INVERTER
E_U4_ABM1         U4_N16714646 0 VALUE { if(ECO_MODE==1,V(ZC),V(NCL))    }
X_U4_U249         U4_ON U4_ONB INVERTER
X_U4_U142         U4_ONSET OVPX1 LOOPB OCL U4_MIN_OFF OR4_PS PARAMS: VHI=1
+  VLO=0 VTHRESH=500E-3 TPLH=1E-9 TPHL=1E-9 TR=1E-9 TF=1E-9
X_U4_U269         LOW_READY U4_LOW_DELAY U4_ONB U4_N16714646 NAND3_PS PARAMS:
+  VHI=1 VLO=0 VTHRESH=500E-3 TPLH=1E-9 TPHL=1E-9 TR=1E-9 TF=1E-9
X_U4_U299         U4_N167166001 LOW_READY INV_PS PARAMS: VHI=1 VLO=0
+  VTHRESH=500E-3 TPLH=285n TPHL=10E-9 TR=1E-9 TF=1E-9
X_U4_U245         U4_N16714228 U4_N16713540 INVERTER
X_U4_U281         HDR_PB U4_N16713434 U4_HI_DLY AND
X_U4_U270         U4_N16714228 U4_N167166462 U4_ON1 NOR2
R_U4_R1         U4_N16714514 U4_N16714478  35.71 TC=0,0 
X_U4_U296         BLNKM U4_N16713570 TBLNKB NAND2_PS PARAMS: VHI=1 VLO=0
+  VTHRESH=500E-3 TPLH=1E-9 TPHL=1E-9 TR=1E-9 TF=1E-9
C_U4_C1         U4_N16714478 0  1n  TC=0,0 
X_U4_U272         ENCIR ENCIR U4_N16714478 SSEND_SET NAND3_BASIC_GEN PARAMS:
+  VDD=1 VSS=0 VTHRESH=500E-3
X_U4_U268         U4_N16713408 ENCIR U4_ONG U4_MIN_OFF NAND3_PS PARAMS: VHI=1
+  VLO=0 VTHRESH=500E-3 TPLH=1E-9 TPHL=1E-9 TR=1E-9 TF=1E-9
X_U4_U271         U4_HI_DLY U4_N16713506 U4_LOW_DELAY NOR2
X_U4_U191         U4_N16713506 U4_N16713434 BUFFER_PS PARAMS: VHI=1 VLO=0
+  VTHRESH=500E-3 TPLH=2n TPHL=50n TR=1E-9 TF=1E-9
X_U4_U267         U4_MIN_OFF U4_N16713408 TOS TOS NAND3_PS PARAMS: VHI=1 VLO=0
+  VTHRESH=500E-3 TPLH=1E-9 TPHL=1E-9 TR=1E-9 TF=1E-9
X_U4_U266         U4_N16713466 U4_ON TOS ENCIR NAND3_PS PARAMS: VHI=1 VLO=0
+  VTHRESH=500E-3 TPLH=1E-9 TPHL=1E-9 TR=1E-9 TF=1E-9
X_U10_U196         VOUT_VFB U10_A U10_B U10_PG1 COMPHYS_BASIC_GEN PARAMS: VDD=1
+  VSS=0 VTHRESH=0.5
E_U10_ABM3         U10_C 0 VALUE { (V(VREF) * 1.15)    }
X_U10_U198         U10_N16689888 U10_N16689096 d_d1 PARAMS:
X_U10_S9    U10_N16689096 0 PGOOD 0 PGOOD_U10_S9 
R_U10_R1         U10_N16689888 U10_N16689096  {(PGOODDELAY/0.69n)+10u} TC=0,0 
E_U10_ABM1         U10_A 0 VALUE { (V(VREF) * 0.85)    }
C_U10_C1         U10_N16689096 0  1n  TC=0,0 
X_U10_U197         U10_C VOUT_VFB U10_B U10_PG2 COMPHYS_BASIC_GEN PARAMS: VDD=1
+  VSS=0 VTHRESH=0.5
X_U10_U195         U10_PG1 U10_PG2 SSENDN U10_N16689888 AND3_BASIC_GEN PARAMS:
+  VDD=1 VSS=0 VTHRESH=500E-3
E_U10_ABM2         U10_B 0 VALUE { (V(VREF) * 0.05)    }
R_R31         0 PWRPAD  1E11  
R_R12         PGND_0 PGND_1  1m  
R_R10         SW_0 SW_1  1m  
R_R15         PVIN PVIN_1  1m  
V_V4         N170316970 PGND_0 -250m
X_U2_U193         HI_READY U2_DQOS BUFFER_PS PARAMS: VHI=1 VLO=0 VTHRESH=500E-3
+  TPLH=2E-9 TPHL=2E-9 TR=1E-9 TF=1E-9
X_U2_U216         U2_N16573169 ENCIR U2_N16573217 AND
X_U2_U220         NCL U2_N16724585 INV_BASIC_GEN PARAMS: VDD=1 VSS=0
+  VTHRESH=500E-3
X_U2_U218         U2_N16724585 U2_N16724642 NCL_OSHT N16724762
+  srlatchrhp_basic_gen PARAMS: VDD=1 VSS=0 VTHRESH=0.5
G_U2_ABM2I2         U2_TON 0 VALUE { if(V(U2_DQOS) >.75, V(U2_TON)/200,0)    }
G_U2_ABM2I1         VREG5 U2_TON VALUE { if(V(U2_DQOS)<0.25, V(SW_0)/170K,0)   
+  }
X_U2_U217         U2_N16573217 U2_DQOS TOS OR
C_U2_C4         0 U2_TON  20.49p IC=0 TC=0,0 
E_U2_ABM20         U2_N16573169 0 VALUE { if( V(U2_N16573151)  
+ >V(U2_TON) ,1,0)   }
R_U2_R23         0 U2_TON  10Meg TC=0,0 
X_U2_U219         U2_N16573217 U2_N16724642 INV_BASIC_GEN PARAMS: VDD=1 VSS=0
+  VTHRESH=500E-3
V_U2_V82         U2_N16573151 VO_TON 70m
X_U12         N170316970 SW_0 d_d1 PARAMS:
.ENDS TPS56920_TRANS
*$
.SUBCKT TPS56920_S17 1 2 3 4  
S_S17         3 4 1 2 _S17
RS_S17         1 2 1G
.MODEL         _S17 VSWITCH Roff=1e8 Ron=26m Voff=1 Von=2
.ends TPS56920_S17
*$
.SUBCKT DRIVER_U9_S5 1 2 3 4  
S_U9_S5         3 4 1 2 _U9_S5
RS_U9_S5         1 2 1G
.MODEL         _U9_S5 VSWITCH Roff=1e11 Ron=3 Voff=.25 Von=.75
.ENDS DRIVER_U9_S5
*$
.SUBCKT DRIVER_U9_S8 1 2 3 4  
S_U9_S8         3 4 1 2 _U9_S8
RS_U9_S8         1 2 1G
.MODEL         _U9_S8 VSWITCH Roff=1e11 Ron=.9 Voff=.25 Von=.75
.ENDS DRIVER_U9_S8
*$
.SUBCKT DRIVER_U9_S7 1 2 3 4  
S_U9_S7         3 4 1 2 _U9_S7
RS_U9_S7         1 2 1G
.MODEL         _U9_S7 VSWITCH Roff=1e11 Ron=3 Voff=.25 Von=.75
.ENDS DRIVER_U9_S7
*$
.SUBCKT DRIVER_U9_S6 1 2 3 4  
S_U9_S6         3 4 1 2 _U9_S6
RS_U9_S6         1 2 1G
.MODEL         _U9_S6 VSWITCH Roff=1e11 Ron=0.9 Voff=.25 Von=.75
.ENDS DRIVER_U9_S6
*$
.SUBCKT TPS56920_H1 1 2 3 4  
H_H1         3 4 VH_H1 37m
VH_H1         1 2 0V
.ENDS TPS56920_H1
*$
.SUBCKT SOFTSTART_U6_S1 1 2 3 4  
S_U6_S1         3 4 1 2 _U6_S1
RS_U6_S1         1 2 1G
.MODEL         _U6_S1 VSWITCH Roff=1000e6 Ron=1.0 Voff=0.49V Von=0.51V
.ENDS SOFTSTART_U6_S1
*$
.SUBCKT SOFTSTART_U6_S7 1 2 3 4  
S_U6_S7         3 4 1 2 _U6_S7
RS_U6_S7         1 2 1G
.MODEL         _U6_S7 VSWITCH Roff=100meg Ron=1m Voff=.25 Von=.75
.ENDS SOFTSTART_U6_S7
*$
.SUBCKT SOFTSTART_U6_S3 1 2 3 4  
S_U6_S3         3 4 1 2 _U6_S3
RS_U6_S3         1 2 1G
.MODEL         _U6_S3 VSWITCH Roff=31.17k Ron=1.0m Voff=0.49V Von=0.51V
.ENDS SOFTSTART_U6_S3
*$
.SUBCKT SOFTSTART_U6_S9 1 2 3 4  
S_U6_S9         3 4 1 2 _U6_S9
RS_U6_S9         1 2 1G
.MODEL         _U6_S9 VSWITCH Roff=1000e6 Ron=35k Voff=0.5 Von=0.51V
.ENDS SOFTSTART_U6_S9
*$
.SUBCKT SOFTSTART_U6_S2 1 2 3 4  
S_U6_S2         3 4 1 2 _U6_S2
RS_U6_S2         1 2 1G
.MODEL         _U6_S2 VSWITCH Roff=1000e6 Ron=2.44k Voff=0.51V Von=0.5
.ENDS SOFTSTART_U6_S2
*$
.SUBCKT SOFTSTART_U6_S8 1 2 3 4  
S_U6_S8         3 4 1 2 _U6_S8
RS_U6_S8         1 2 1G
.MODEL         _U6_S8 VSWITCH Roff=1000e6 Ron=1u Voff=0.5 Von=0.51V
.ENDS SOFTSTART_U6_S8
*$
.SUBCKT TPS56920_S18 1 2 3 4  
S_S18         3 4 1 2 _S18
RS_S18         1 2 1G
.MODEL         _S18 VSWITCH Roff=1e8 Ron=19m Voff=1 Von=3
.ENDS TPS56920_S18
*$
.SUBCKT DCAP_PWM_U3_S12 1 2 3 4  
S_U3_S12         3 4 1 2 _U3_S12
RS_U3_S12         1 2 1G
.MODEL         _U3_S12 VSWITCH Roff=1e11 Ron=1 Voff=.25 Von=.75
.ENDS DCAP_PWM_U3_S12
*$
.SUBCKT FAULTS_UVOVP_U7_S12 1 2 3 4  
S_U7_S12         3 4 1 2 _U7_S12
RS_U7_S12         1 2 1G
.MODEL         _U7_S12 VSWITCH Roff=1e11 Ron=5 Voff=.6 Von=.4
.ENDS FAULTS_UVOVP_U7_S12
*$
.SUBCKT LDO_U1_S1 1 2 3 4  
S_U1_S1         3 4 1 2 _U1_S1
RS_U1_S1         1 2 1G
.MODEL         _U1_S1 VSWITCH Roff=1e8 Ron=100 Voff=3.6 Von=3.4
.ENDS LDO_U1_S1
*$
.SUBCKT OCL_U5_S2 1 2 3 4  
S_U5_S2         3 4 1 2 _U5_S2
RS_U5_S2         1 2 1G
.MODEL         _U5_S2 VSWITCH Roff=1e9 Ron=1m Voff=0.0V Von=1.0V
.ENDS OCL_U5_S2
*$
.SUBCKT PGOOD_U10_S9 1 2 3 4  
S_U10_S9         3 4 1 2 _U10_S9
RS_U10_S9         1 2 1G
.MODEL         _U10_S9 VSWITCH Roff=1e8 Ron=96.15 Voff=0.51 Von=0.49
.ENDS PGOOD_U10_S9
*$
.SUBCKT OR A B OUT  
EOUT OUT1 0 VALUE { IF( V(A)>0.5 | V(B)>0.5,1,0) }
R1 OUT1 OUT 1
C1 OUT 0 10p
.ENDS OR
*$
.SUBCKT NOR2 A B OUT  
EOUT OUT1 0 VALUE { IF( V(A)>0.5 | V(B)>0.5,0,1) }
R1 OUT1 OUT 1
C1 OUT 0 10p
.ENDS NOR2
*$
.SUBCKT NOR3 A B C OUT  
EOUT OUT1 0 VALUE { IF( V(A)>0.5 | V(B)>0.5 | V(C)>0.5,0,1) }
R1 OUT1 OUT 1
C1 OUT 0 10p
.ENDS NOR3
*$
.SUBCKT NOR4 A B C D OUT  
EOUT OUT1 0 VALUE { IF( V(A)>0.5 | V(B)>0.5 | V(C)>0.5 | V(D)>0.5,0,1) }
R1 OUT1 OUT 1
C1 OUT 0 10p
.ENDS NOR4
*$
.SUBCKT NAND3 A B C OUT  
EOUT OUT1 0 VALUE { IF( V(A)<0.5 & V(B)<0.5 & V(C)<0.5,1,0) }
R1 OUT1 OUT 1
C1 OUT 0 10p
.ENDS NAND3
*$
.SUBCKT NAND2 A B OUT  
EOUT OUT1 0 VALUE { IF( V(A)<0.5 & V(B)<0.5,1,0) }
R1 OUT1 OUT 1
C1 OUT 0 10p
.ends NAND2
*$
.SUBCKT AND3 A B C OUT  
EOUT OUT1 0 VALUE { IF( V(A)>0.5 & V(B)>0.5 & V(C)>0.5,1,0) }
R1 OUT1 OUT 1
C1 OUT 0 10p
.ends AND3
*$
.SUBCKT INVERTER IN OUT  
EOUT OUT1 0 VALUE { IF( V(IN)<0.5,1,0) }
R1 OUT1 OUT 1
C1 OUT 0 10p
.ends INVERTER
*$
.SUBCKT COMP_HYS2 INP OUT 
+ PARAMs:  TH=.5 HYS=0.1
EIN INP1 0 INP 0 1 
EHYS INP1 INP2 VALUE { IF( V(1)>0.5,-(HYS)/2,HYS/2) }
EOUT OUT 0 VALUE { IF( V(INP2)>TH,1,0) }
R1 OUT 1 1
C1 1 0 1n
RINP1 INP1 0 10K
.ends COMP_HYS2
*$
.SUBCKT DELAY IN OUT
+ PARAMs:  T=100
S_S1         MEAS 0 RESET2 0 S1
E_ABM1         CH 0 VALUE { if( V(IN)>0.5,1,0)    }
E_ABM3         OUT 0 VALUE { if( V(MEAS)>0.5 & V(CH)>0.5,1,0)    }
R_R1         MEAS CH  {T} 
C_C1         0 MEAS  1.4427n  
E_ABM2         RESET 0 VALUE { if(V(CH)<0.5,1,0)    }
R_R2         RESET2 RESET  0.1  
C_C2         0 RESET2  1.4427n  
.MODEL         S1 VSWITCH Roff=1e9 Ron=1.0 Voff=0.25V Von=0.75V
.ENDS DELAY
*$
.SUBCKT BUFFER_PS A Y PARAMS: vhi=1 vlo=0 vthresh=500e-3 tplh=1e-9
+ tphl=1e-9 tr=1e-9 tf=1e-9
RA A 0 1e11
CA A 0 0.01pF
VS VSUP 0 DC 1
EBUF1 Ypp 0 VALUE={IF(V(A) > ({vthresh}), 1, 0)}
ROUTpp Ypp 0 1e11
XNSW1 OUTp Ypp 0 NSW_PS PARAMS: RONval={(tplh+1e-15)/(1e-12*0.693)}
+ VTHval=0.5
XPSW1 OUTp Ypp VSUP PSW_PS PARAMS: RONval={(tphl+1e-15)/(1e-12*0.693)}
+ VTHval=0.5
CDEL1 OUTp 0 1pF
ETHRESH Yp 0 VALUE={IF(V(OUTp) > 0.5, 1, 0)}
ROUTp Yp 0 1e11
** add rise and fall *****
XNSW2 OUTr Yp 0 NSW_PS PARAMS: RONval={(tf+1e-15)/(1e-12*2.3)} VTHval=0.5
XPSW2 OUTr Yp VSUP PSW_PS PARAMS: RONval={(tr+1e-15)/(1e-12*2.3)} VTHval=0.5
CDEL2 OUTr 0 1pF
EOUT OUTf 0 VALUE={V(OUTr)*({vhi} - {vlo})+{vlo}}
RDR OUTf Y  1000
RO Y 0 1e11
.ENDS BUFFER_PS
*$
.SUBCKT INV_PS Y A PARAMS: vhi=1 vlo=0 vthresh=500e-3
+ tplh=1e-9 tphl=1e-9 tr=1e-9 tf=1e-9
RA A 0 1e11
CA A 0 0.01pF
VS VSUP 0 DC 1
EINV1 Ypp 0 VALUE={IF(V(A) > ({vthresh}), 0, 1)}
ROUTpp Ypp 0 1e11
XNSW1 OUTp Ypp 0 NSW_PS PARAMS: RONval={(tplh+1e-15)/(1e-12*0.693)}
+ VTHval=0.5
XPSW1 OUTp Ypp VSUP PSW_PS PARAMS: RONval={(tphl+1e-15)/(1e-12*0.693)}
+ VTHval=0.5
CDEL1 OUTp 0 1pF
ETHRESH Yp 0 VALUE={IF(V(OUTp) > 0.5, 1, 0)}
ROUTp Yp 0 1e11
XNSW2 OUTr Yp 0 NSW_PS PARAMS: RONval={(tf+1e-15)/(1e-12*2.3)} VTHval=0.5
XPSW2 OUTr Yp VSUP PSW_PS PARAMS: RONval={(tr+1e-15)/(1e-12*2.3)} VTHval=0.5
CDEL2 OUTr 0 1pF
EOUT OUTf 0 VALUE={V(OUTr)*({vhi} - {vlo})+{vlo}}
RDR OUTf Y  1000
RO Y 0 1e11
.ENDS INV_PS
*$
.SUBCKT OR4_PS Y A B C D PARAMS: vhi=1 vlo=0 vthresh=500e-3 tplh=1e-9
+ tphl=1e-9 tr=1e-9 tf=1e-9
RA A 0 1e11
CA A 0 0.01pF
RB B 0 1e11
CB B 0 0.01pF
RC C 0 1e11
CC C 0 0.01pF
RD D 0 1e11
CD D 0 0.01pF
VS VSUP 0 DC 1
EOR4 Ypp 0 VALUE={IF(V(A) > {vthresh} | V(B) > {vthresh}  | V(C) >
+ {vthresh}  | V(D) > {vthresh}, 1, 0)}
ROUTpp Ypp 0 1e11
XNSW1 OUTp Ypp 0 NSW_PS PARAMS: RONval={(tplh+1e-15)/(1e-12*0.693)}
+ VTHval=0.5
XPSW1 OUTp Ypp VSUP PSW_PS PARAMS: RONval={(tphl+1e-15)/(1e-12*0.693)}
+ VTHval=0.5
CDEL1 OUTp 0 1pF
ETHRESH Yp 0 VALUE={IF(V(OUTp) > 0.5, 1, 0)}
ROUTp Yp 0 1e11
XNSW2 OUTr Yp 0 NSW_PS PARAMS: RONval={(tf+1e-15)/(1e-12*2.3)} VTHval=0.5
XPSW2 OUTr Yp VSUP PSW_PS PARAMS: RONval={(tr+1e-15)/(1e-12*2.3)} VTHval=0.5
CDEL2 OUTr 0 1pF
EOUT OUTf 0 VALUE={V(OUTr)*({vhi} - {vlo})+{vlo}}
RDR OUTf Y  1000
RO Y 0 1e11
.ENDS OR4_PS
*$
.SUBCKT NAND2_PS Y A B PARAMS: vhi=1 vlo=0 vthresh=500e-3
+ tplh=1e-9 tphl=1e-9 tr=1e-9 tf=1e-9
RA A 0 1e11
CA A 0 0.01pF
RB B 0 1e11
CB B 0 0.01pF
VS VSUP 0 DC 1
ENAND2 Ypp 0 VALUE={IF(V(A) > {vthresh} & V(B) > {vthresh}, 0, 1)}
ROUTpp Ypp 0 1e11
***** add delay lines ****
XNSW1 OUTp Ypp 0 NSW_PS PARAMS: RONval={(tplh+1e-15)/(1e-12*0.693)}
+ VTHval=0.5
XPSW1 OUTp Ypp VSUP PSW_PS PARAMS: RONval={(tphl+1e-15)/(1e-12*0.693)}
+ VTHval=0.5
CDEL1 OUTp 0 1pF
ETHRESH Yp 0 VALUE={IF(V(OUTp) > 0.5, 1, 0)}
ROUTp Yp 0 1e11
** add rise and fall *****
XNSW2 OUTr Yp 0 NSW_PS PARAMS: RONval={(tf+1e-15)/(1e-12*2.3)} VTHval=0.5
XPSW2 OUTr Yp VSUP PSW_PS PARAMS: RONval={(tr+1e-15)/(1e-12*2.3)} VTHval=0.5
CDEL2 OUTr 0 1pF
EOUT OUTf 0 VALUE={V(OUTr)*({vhi} - {vlo})+{vlo}}
RDR OUTf Y  1000
RO Y 0 1e11
.ENDS NAND2_PS
*$
.SUBCKT NSW_PS D G S PARAMS: RONval=10k VTHval=0.7 VCHARval=0.01
+ CGval=0.01pF CDval=0.01pF 
RDDUM D 0 1e11
RSDUM S 0 1e11
RGDUM G 0 1e11
CG G D {CGval}
CD D S {CDval}
EEXP F1 0 VALUE={LIMIT(((V(G,S)-VTHval)/VCHARval),-80,80)} 
GOUT D S VALUE={V(D,S)/(RONval*(1+EXP(-LIMIT(((V(G,S)-VTHval)/VCHARval)
+,-80,80))))}
.ENDS NSW_PS
*$
.SUBCKT PSW_PS D G S PARAMS: RONval=10k VTHval=0.7 VCHARval=0.01
+ CGval=0.01pF CDval=0.01pF 
RDDUM D 0 1e11
RSDUM S 0 1e11
RGDUM G 0 1e11
CG G D {CGval}
CD D S {CDval}
EEXP F1 0 VALUE={LIMIT(((V(S,G)-VTHval)/VCHARval),-80,80)} 
GOUT S D VALUE={V(S,D)/(RONval*(1+EXP(-LIMIT(((V(S,G)-VTHval)/VCHARval)
+,-80,80))))}
.ENDS PSW_PS
*$
.SUBCKT SRLATCHRHP_BASIC_GEN S R Q QB PARAMS: VDD=1 VSS=0 VTHRESH=0.5 
Rs S 0 1e11
Rr R 0 1e11
GQ 0 Qint VALUE = {IF(V(R) > {VTHRESH},-5,IF(V(S)>{VTHRESH},5, 0))}
CQint Qint 0 1n