*$ 
*TPS54239
*****************************************************************************
* (C) Copyright 2013 Texas Instruments Incorporated. All rights reserved.                                            
*****************************************************************************
** This model is designed as an aid for customers of Texas Instruments.
** TI and its licensors and suppliers make no warranties, either expressed
** or implied, with respect to this model, including the warranties of 
** merchantability or fitness for a particular purpose.  The model is
** provided solely on an "as is" basis.  The entire risk as to its quality
** and performance is with the customer
*****************************************************************************
*
* This model is subject to change without notice. Texas Instruments
* Incorporated is not responsible for updating this model.
*
*****************************************************************************
*
** Released by: WEBENCH Design Center, Texas Instruments Inc.
* Part: TPS54239
* Date: 28MAR2013
* Model Type: TRANSIENT
* Simulator: PSPICE
* Simulator Version: 16.2.0.p001
* EVM Order Number: TPS54239EVM-056
* EVM Users Guide: SLVU835 January 2013
* Datasheet: SLVSBT0 JANUARY 2013
*
* Model Version: Final 1.00
*
*****************************************************************************
*
* Updates:
*
* Final 1.00
* Release to Web.
*
*****************************************************************************
.SUBCKT TPS54239_TRANS EN GND PwPd SS SW VBST VFB VIN VREG5  PARAMS: MODE=1
C_u6_C5         GND u6_REG5  100p  
E_u6_ABM20         u6_ENVREG5 0 VALUE { if( V(u6_ENSW)>0.5  
+ & V(VIN)>3.5,LIMIT(V(VIN),0,5.5),0)   }
X_u6_U16         ENCIR u6_N112757311 INVERTER
X_u6_U17         u6_N112757311 u6_N11275210 BUF_DELAY_BASIC_GEN PARAMS: VDD=1
+  VSS=0 VTHRESH=0.5 DELAY=20u
X_u6_U15          VREG5 u6_V5INOK COMP_HYS2 PARAMS:  TH=3.585 HYS=.33
X_u6_S1    u6_ENVREG5 GND VREG5 GND LDO_u6_S1 
C_u6_C1         GND EN  1p IC=0 TC=0,0 
G_u6_G2         u6_REG5 VREG5 TABLE { V(u6_REG5, VREG5) } 
+ ( (-10,-70m)(-1m,-60m)(0,0)(1m,60m)(10,70m) )
E_u6_ABM19         ENCIR 0 VALUE { if( V(u6_ENSW)>0.5  
+ & V(u6_V5INOK)>0.5,1,0)   }
R_u6_R4         u6_REG5 u6_ENVREG5  1  
X_u6_U19          EN u6_ENSW COMP_HYS2 PARAMS:  TH=1.1 HYS=1
X_u6_U18         ENCIR u6_N11275210 ENR AND
X_U10         N148484260 SW d_d1 PARAMS:
X_S18    N13133869 GND SW GND TPS54239_TRANS_S18 
X_U2_U400         U2_N14860419 N15474739 OVP AND
E_U2_ABM6         U2_1P125VREF 0 VALUE { V(U2_N21651) * 1.25    }
V_U2_V91         U2_N21651 GND 0.765
R_U2_R38         GND U2_N154897631  1E11  
R_U2_R35         GND U2_HR  1E11  
X_U2_U577         U2_HS U2_HR U2_N14846220 U2_N14845799 srlatchrhp_basic_gen
+  PARAMS: VDD=1 VSS=0 VTHRESH=.5
R_U2_R36         GND U2_HTIME  1E11  
X_U2_U580         ENR U2_HS N14845300 OR
X_U2_U578         U2_N14846220 U2_N14846825 BUF_DELAY_BASIC_GEN PARAMS: VDD=1
+  VSS=0 VTHRESH=0.5 DELAY=25u
X_U2_U11         U2_HTIME VREG5 d_d1 PARAMS:
E_U2_ABM5         U2_N23250 0 VALUE { if(V(VFB) < V(U2_N21651) * 0.65, 1,0)   
+  }
X_U2_S7    U2_START_C GND U2_HTIME GND FAULTS_U2_S7 
E_U2_ABM7         U2_HS 0 VALUE { if(V(U2_HTIME) > 0.764, 1,0)    }
X_U2_U401         U2_N15489980 N15474739 U2_UV AND
X_U2_U280         U2_N14846825 U2_N14846926 INVERTER
X_U2_S12    U2_DISCH GND VOINFO GND FAULTS_U2_S12 
X_U2_U310         ENCIR U2_OV U2_N14860419 AND
X_U2_U576         UVP U2_HR U2_START_C U2_N14842286 srlatchrhp_basic_gen
+  PARAMS: VDD=1 VSS=0 VTHRESH=.5
G_U2_ABM2I1         VREG5 U2_HTIME VALUE { if(V(U2_START_C)>0.5, {(6u +
+  MODE*10u) * 0.13 / V(N14666704)},0)    }
C_U2_C2         U2_HTIME GND  8.2n  
X_U2_U309         SSEND U2_N23250 U2_N15489980 AND
R_U2_R37         GND U2_N14845799  1E11  
E_U2_ABM49         U2_OV 0 VALUE { if( V(VFB)>  
+ V(U2_1P125VREF),1,0)   }
R_U2_R34         GND U2_N14842286  1E11  
X_U2_U311         U2_N14846220 U2_N14846926 U2_N14849223 AND
X_U2_U579         U2_N14849223 U2_HR BUFFER_PS PARAMS: VHI=1 VLO=0
+  VTHRESH=500E-3 TPLH=20u TPHL=20u TR=1E-9 TF=1E-9
X_U2_U581         U2_N15489733 N14845300 UVP U2_N154897631 srlatchrhp_basic_gen
+  PARAMS: VDD=1 VSS=0 VTHRESH=.5
X_U2_U575         ENCIR U2_DISCH BUF_DELAY_BASIC_GEN PARAMS: VDD=1 VSS=0
+  VTHRESH=.5 DELAY=0.5u
X_U2_U26         U2_UV U2_N15489733 delay PARAMS: T=6000
C_C8         VIN SW  1p IC=0 TC=0,0 
C_C7         SW GND  1p IC=0 TC=0,0 
X_U5_U243         U5_BLNKM U5_NCLB U5_N14704178 OR
X_U5_U16         VREG5 VBST d_d1 PARAMS:
E_U5_ABM47         U5_START_DEL 0 VALUE { if(V(U5_TIMEOCL) >0.5,1,0)    }
E_U5_ABM15         U5_REFEFF 0 VALUE { V(N13136054)  
+ + V(U5_RAMP)   }
R_U5_R23         GND U5_TON  10Meg TC=0,0 
R_U5_R27         SW U5_INT  670k TC=0,0 
X_U5_S7    U5_DRL1 GND VREG5 N13133869 DCAP_U5_S7 
X_U5_U281         U5_DRVHPREBIAS U5_N14705142 U5_HI_DEL AND
R_U5_R29         GND U5_RMP  1e8 TC=0,0 
X_U5_U299         U5_N150646911 U5_LOW_READY INV_PS PARAMS: VHI=1 VLO=0
+  VTHRESH=500E-3 TPLH=200n TPHL=10E-9 TR=1E-9 TF=1E-9
X_U5_U313         U5_N14704296 U5_DRL2 INV_PS PARAMS: VHI=1 VLO=0
+  VTHRESH=500E-3 TPLH=1E-9 TPHL=1E-9 TR=1E-9 TF=1E-9
X_U5_U191         U5_N14703778 U5_N14705142 BUFFER_PS PARAMS: VHI=1 VLO=0
+  VTHRESH=500E-3 TPLH=2n TPHL=50n TR=1E-9 TF=1E-9
X_U5_U310         U5_N14704648 U5_DRH1 INV_PS PARAMS: VHI=1 VLO=0
+  VTHRESH=500E-3 TPLH=1E-9 TPHL=1E-9 TR=1E-9 TF=1E-9
E_U5_E11         U5_N14786773 GND U5_OCLHI GND 2
X_U5_U275         U5_DRVOFF UVP U5_HI_READY OVP U5_HIDRIVE NOR4
X_U5_U294         U5_HI_READY U5_ON U5_ON1 NAND2_PS PARAMS: VHI=1 VLO=0
+  VTHRESH=500E-3 TPLH=1E-9 TPHL=1E-9 TR=1E-9 TF=1E-9
X_U5_U311         U5_N14704742 U5_DRL1 INV_PS PARAMS: VHI=1 VLO=0
+  VTHRESH=500E-3 TPLH=1E-9 TPHL=1E-9 TR=1E-9 TF=1E-9
X_U5_S5    U5_DRH1 GND VBST N13133969 DCAP_U5_S5 
X_U5_U274         N13155551 U5_DRVOFF INVERTER
X_U5_U277         U5_ZC U5_N14705922 U5_N14705582 OR
E_U5_ABM46         U5_RAMP 0 VALUE { if(V(N13155551)>0.5,   
+ LIMIT((V(U5_RMPIN)-0.01),-10m,5m),0)   }
R_U5_R30         GND U5_N150647150  1e8 TC=0,0 
E_U5_ABM11         U5_N14988808 0 VALUE { if( V(U5_OCLTHR)  
+ >V(U5_LLO) ,1,0)   }
X_U5_U284         U5_LOWDRIVE U5_N14704296 U5_DRL1 AND
G_U5_G1         U5_VIM GND U5_N14705578 U5_N14705626 1u
X_U5_U262         U5_ZC U5_N14707232 U5_TBLNKB N13155551 NAND3_PS PARAMS: VHI=1
+  VLO=0 VTHRESH=500E-3 TPLH=1E-9 TPHL=1E-9 TR=1E-9 TF=1E-9
X_U5_U264         U5_N14703488 U5_SSENDSET U5_N14703510 U5_SSEND NAND3_PS
+  PARAMS: VHI=1 VLO=0 VTHRESH=500E-3 TPLH=1E-9 TPHL=1E-9 TR=1E-9 TF=1E-9
X_U5_U263         U5_SSENDSET N13155551 N13155551 U5_N14703488 NAND3_PS PARAMS:
+  VHI=1 VLO=0 VTHRESH=500E-3 TPLH=1E-9 TPHL=1E-9 TR=1E-9 TF=1E-9
C_U5_C5         VOINFO U5_INT  6p IC=0 TC=0,0 
X_U5_S6    U5_DRH2 GND N13133969 SW DCAP_U5_S6 
X_U5_U193         U5_HI_READY U5_DQOS BUFFER_PS PARAMS: VHI=1 VLO=0
+  VTHRESH=500E-3 TPLH=2E-9 TPHL=2E-9 TR=1E-9 TF=1E-9
R_U5_R31         GND U5_QRMP  1e8 TC=0,0 
E_U5_ABM49         U5_VO_TON 0 VALUE { if( V(N14846432)<0.5,   
+ V(U5_VOINFO1), 0.33)   }
E_U5_ABM9         U5_LLO 0 VALUE { if( V(U5_N14704796)>0.5,  
+ V(SW),  
+ V(GND) )  }
X_U5_U300         U5_ONG U5_N150646911 INV_PS PARAMS: VHI=1 VLO=0
+  VTHRESH=500E-3 TPLH=1E-9 TPHL=1E-9 TR=1E-9 TF=1E-9
X_U5_U265         U5_ON U5_ONSET U5_ONSET U5_N14704342 NAND3_PS PARAMS: VHI=1
+  VLO=0 VTHRESH=500E-3 TPLH=1E-9 TPHL=1E-9 TR=1E-9 TF=1E-9
C_U5_C13         U5_OCLHI GND  10p IC=0 TC=0,0 
R_U5_R28         U5_N14704796 GND  1e15 TC=0,0 
X_U5_U295         U5_N14703510 U5_HI_DEL U5_HIDRIVE NAND2_PS PARAMS: VHI=1
+  VLO=0 VTHRESH=500E-3 TPLH=1E-9 TPHL=1E-9 TR=1E-9 TF=1E-9
E_U5_E8         U5_N14705832 GND VFB GND 1
X_U5_U258         U5_ONS1 U5_N14703724 U5_TBLNKB N13155551 NAND3_PS PARAMS:
+  VHI=1 VLO=0 VTHRESH=500E-3 TPLH=1E-9 TPHL=1E-9 TR=1E-9 TF=1E-9
R_U5_R35         U5_INT U5_N14705626  220k TC=0,0 
X_U5_U286         U5_LOW_READY U5_PREBIAS OVP U5_SSENDSET U5_N14703484 NOR4
R_U5_R36         U5_N14705626 GND  300k TC=0,0 
X_U5_U266         U5_N14704342 U5_ON U5_TOS N13155551 NAND3_PS PARAMS: VHI=1
+  VLO=0 VTHRESH=500E-3 TPLH=1E-9 TPHL=1E-9 TR=1E-9 TF=1E-9
X_U5_U188         U5_TBLNK U5_N150646390 BUFFER_PS PARAMS: VHI=1 VLO=0
+  VTHRESH=500E-3 TPLH=10E-9 TPHL=30E-9 TR=1E-9 TF=1E-9
X_U5_U278         U5_HI_READY U5_N14703778 INVERTER
X_U5_U257         U5_N14703724 U5_N14703638 U5_N14703638 U5_ONS1 NAND3_PS
+  PARAMS: VHI=1 VLO=0 VTHRESH=500E-3 TPLH=1E-9 TPHL=1E-9 TR=1E-9 TF=1E-9
X_U5_U288         N13155551 U5_N150652552 U5_LOWDRIVE AND
X_U5_U283         U5_N14704648 U5_N150653771 U5_DRH2 AND
X_U5_U280         U5_LOWDRIVE U5_N150645351 INVERTER
X_U5_U296         U5_BLNKM U5_TBLNKB U5_N14705582 NAND2_PS PARAMS: VHI=1 VLO=0
+  VTHRESH=500E-3 TPLH=1E-9 TPHL=1E-9 TR=1E-9 TF=1E-9
X_U5_U312         U5_N14704040 U5_DRH2 INV_PS PARAMS: VHI=1 VLO=0
+  VTHRESH=500E-3 TPLH=1E-9 TPHL=1E-9 TR=1E-9 TF=1E-9
E_U5_ABM12         U5_NCLB 0 VALUE { if( V(U5_LLO)  
+ > -V(U5_OCLTHR),0,1)   }
C_U5_C10         GND U5_RMP  4p IC=0 TC=0,0 
E_U5_ABM3         U5_DRVHPREBIAS 0 VALUE { if(V(N13133969)>5,1,0)    }
E_U5_E10         VOINFO GND U5_N14738087 GND 1
R_U5_R34         U5_N14705578 GND  60k TC=0,0 
R_U5_R7         U5_N14738087 U5_N14738075  1800k TC=0,0 
R_U5_R26         U5_LLO GND  1e15 TC=0,0 
X_U5_U287         U5_N150653291 U5_N14703484 U5_N150652552 AND
E_U5_ABM10         U5_LUPB 0 VALUE { if( V(U5_REFEFF)  
+ >V(U5_VIM) ,1,0)   }
C_U5_C4         GND U5_TON  20p IC=0 TC=0,0 
X_U5_U282         U5_HIDRIVE U5_N14704040 U5_DRH1 AND
X_U5_U259         U5_N14703428 U5_OCLDIS U5_OCLDIS U5_ONS2 NAND3_PS PARAMS:
+  VHI=1 VLO=0 VTHRESH=500E-3 TPLH=1E-9 TPHL=1E-9 TR=1E-9 TF=1E-9
R_U5_R33         VOINFO U5_N14705578  92k TC=0,0 
G_U5_ABMII1         VREG5 U5_RMP VALUE { if(V(N13155551)>0.5, 28n,0)    }
X_U5_U270         U5_N14704200 U5_N150664972 U5_ON1 NOR2
R_U5_R9         U5_TIMEOCL U5_N14786773  1Meg TC=0,0 
X_U5_U247         U5_LOW_READY U5_N150664972 INVERTER
X_U5_U142         U5_ONSET U5_ONS3 U5_ONS1 U5_ONS2 U5_TBLNK OR4_PS PARAMS:
+  VHI=1 VLO=0 VTHRESH=500E-3 TPLH=1E-9 TPHL=1E-9 TR=1E-9 TF=1E-9
X_U5_U192         N13133869 U5_N14704200 BUFFER_PS PARAMS: VHI=1 VLO=0
+  VTHRESH=2.5 TPLH=2n TPHL=5E-9 TR=1E-9 TF=1E-9
R_U5_R32         U5_VIM U5_N14705832  8k TC=0,0 
C_U5_C8         GND U5_N14738075  4.6p IC=0 TC=0,0 
X_U5_S12    U5_QRMP GND U5_RMP GND DCAP_U5_S12 
R_U5_R37         GND U5_N14706924  1Meg  
X_U5_U271         U5_HI_DEL U5_N14703778 U5_LOW_DELAY NOR2
R_U5_R6         U5_N14738075 U5_N14791687  1800k TC=0,0 
E_U5_ABM19         U5_N14705078 0 VALUE { if( V(U5_N14704906)  
+ >V(U5_TON) ,1,0)   }
X_U5_U216         U5_N14705078 N13155551 U5_N14705656 AND
C_U5_C11         GND U5_TIMEOCL  3p IC=0 TC=0,0 
E_U5_ABM35         U5_OCLTHR 0 VALUE { if(V(N14846432)<0.5, -0.217,-0.175)    }
C_U5_C14         GND U5_N14791687  5.4p IC=0 TC=0,0 
E_U5_ABM37         U5_ONS3 0 VALUE { if(V(VOINFO) >7.2,1,0)    }
R_U5_R41         SW U5_N14705662  200 TC=0,0 
X_U5_U250         UVP U5_N150653291 INVERTER
X_U5_U217         U5_DQOS U5_N14705656 U5_TOS OR
X_U5_U285         U5_N14704742 U5_N150645351 U5_DRL2 AND
X_U5_U194         U5_START_DEL N14846432 BUFFER_PS PARAMS: VHI=1 VLO=0
+  VTHRESH=.5 TPLH=12u TPHL=1u TR=1E-9 TF=1E-9
E_U5_E7         U5_RMPIN GND U5_RMP GND 1
R_U5_R40         GND U5_N14706850  1Meg  
R_U5_R42         U5_N14988808 U5_OCLHI  200 TC=0,0 
X_U5_U249         U5_ON U5_ONB INVERTER
E_U5_ABM28         U5_N14704796 0 VALUE { if( V(U5_N14705662)<0.5  
+ & V(U5_ON)<0.5 ,1,0)   }
R_U5_R25         VREG5 GND  1e15 TC=0,0 
X_U5_U241         U5_BLNKM U5_LOOPB U5_N14703638 OR
X_U5_U261         U5_N14707232 U5_N14704178 U5_N14704178 U5_ZC NAND3_PS PARAMS:
+  VHI=1 VLO=0 VTHRESH=500E-3 TPLH=1E-9 TPHL=1E-9 TR=1E-9 TF=1E-9
C_U5_C9         GND U5_N14738087  4.6p IC=0 TC=0,0 
E_U5_ABM48         U5_VOINFO1 0 VALUE { V(VOINFO) * 0.5    }
X_U5_U269         U5_LOW_READY U5_LOW_DELAY U5_ONB U5_ZC NAND3_PS PARAMS: VHI=1
+  VLO=0 VTHRESH=500E-3 TPLH=1E-9 TPHL=1E-9 TR=1E-9 TF=1E-9
G_U5_ABM2I1         VREG5 U5_TON VALUE { if(V(U5_DQOS)<0.25, V(SW)/170K,0)    }
R_U5_R10         U5_N14791687 U5_SWIN  572k TC=0,0 
X_U5_S8    U5_DRL2 GND N13133869 GND DCAP_U5_S8 
R_U5_R38         U5_VIM GND  1e11 TC=0,0 
E_U5_E12         U5_SWIN GND SW GND 1
X_U5_U302         U5_DRVHPREBIAS U5_QRMP U5_N150647150 MONOPOS_PS PARAMS:
+  PW=10n
X_U5_U246         U5_N150646390 U5_TBLNKB INVERTER
X_U5_U260         U5_ONS2 U5_N14703428 U5_TBLNKB N13155551 NAND3_PS PARAMS:
+  VHI=1 VLO=0 VTHRESH=500E-3 TPLH=1E-9 TPHL=1E-9 TR=1E-9 TF=1E-9
G_U5_ABM2I2         U5_TON GND VALUE { if(V(U5_DQOS) >.75, V(U5_TON)/200,0)   
+  }
X_U5_U242         U5_BLNKM U5_OCLHI U5_OCLDIS OR
V_U5_V82         U5_N14704906 U5_VO_TON 70m
X_U5_U279         U5_HIDRIVE U5_N150653771 INVERTER
X_U5_U245         U5_N14704200 U5_N14705922 INVERTER
C_U5_C12         U5_N14705662 GND  10p IC=0 TC=0,0 
X_U5_U267         U5_TBLNK U5_N14705168 U5_TOS U5_TOS NAND3_PS PARAMS: VHI=1
+  VLO=0 VTHRESH=500E-3 TPLH=1E-9 TPHL=1E-9 TR=1E-9 TF=1E-9
X_U5_U576         U5_DRVHPREBIAS U5_N14706850 U5_N14706924 U5_PREBIAS
+  srlatchrhp_basic_gen PARAMS: VDD=1 VSS=0 VTHRESH=.5
X_U5_U268         U5_N14705168 N13155551 U5_ONG U5_TBLNK NAND3_PS PARAMS: VHI=1
+  VLO=0 VTHRESH=500E-3 TPLH=1E-9 TPHL=1E-9 TR=1E-9 TF=1E-9
X_U5_U239         U5_LUPB U5_LOOPB INVERTER
C_U5_C6         U5_N14705578 GND  0.8p IC=0 TC=0,0 
V_V2         N148483620 SW -250m
X_S17    N13133969 SW VIN SW TPS54239_TRANS_S17 
V_V1         N148484260 GND -250m
X_U1_U9         SS VREG5 d_d1 PARAMS:
G_U1_ABMII7         VREG5 U1_SSC VALUE { if(V(N13155551)>0.5 & V(SS) <0.7, {40u
+  + MODE*10u},0)    }
X_U1_U11         U1_SSC VREG5 d_d1 PARAMS:
X_U1_S8    U1_SRATIO GND U1_RTO N14666704 SOFTSTART_U1_S8 
G_U1_ABMII2         VREG5 SS VALUE { if(V(N13155551)>0.5, {(6u + MODE * 10u) *
+  0.91},0)    }
X_U1_U10         SSEND U1_SRATIO U1_N15470933 MONOPOS_PS PARAMS: PW=1u
E_U1_ABM4         U1_N15470657 0 VALUE { if(V(SS)>0.8, V(SS)-0.8,0)    }
G_U1_ABMII5         VREG5 SS VALUE { if(V(N13155551)>0.5 & V(SS) <0.7, {40u +
+  MODE*10u},0)    }
G_U1_ABMII3         VREG5 SS VALUE { if(V(N13155551)>0.5 & V(SS) > 1.96, {22u+
+  MODE*100u},0)    }
R_U1_R32         GND U1_N15470933  1E11  
E_U1_ABM20         N13136054 0 VALUE { if(V(U1_N15470657)>0.765, 0.765,
+  V(U1_N15470657))    }
X_U1_S7    N13155551 GND U1_SSC GND SOFTSTART_U1_S7 
X_U1_S5    N13155551 GND SS GND SOFTSTART_U1_S5 
C_U1_C3         N14666704 GND  1u  
E_U1_ABM50         U1_ENSS 0 VALUE { if( V(N14846432)<0.5 & V(ENCIR)>0.5,  
+ 1,0)   }
X_U1_U637         U1_N15470593 U1_N15470573 U1_N15470669 U1_N15470643
+  srlatchshp_basic_gen PARAMS: VDD=1 VSS=0 VTHRESH=0.5
G_U1_ABMII4         VREG5 U1_SSC VALUE { if(V(N13155551)>0.5, {(6u + MODE*10u)
+  * 0.91},0)    }
X_U1_U14         ENCIR U1_N15470669 N13155551 AND
R_U1_R31         GND SS  1E11  
E_U1_ABM21         SSEND 0 VALUE { if(V(U1_N15470657)>0.763, 1,0)    }
R_U1_R33         GND U1_SSC  1E11  
R_U1_R34         GND U1_N15470643  1E11  
E_U1_ABM6         N15474739 0 VALUE { if(V(SS)>3.3,1,0)    }
X_U1_U638         N14845300 UVP U1_N15470573 OR
G_U1_ABMII6         VREG5 U1_SSC VALUE { if(V(N13155551)>0.5 & V(SS) <0.5, {40u
+  + MODE*10u},0)    }
C_U1_C2         U1_SSC GND  10n  
X_U1_U12         N14845300 U1_N15470593 BUF_DELAY_BASIC_GEN PARAMS: VDD=1 VSS=0
+  VTHRESH=0.5 DELAY=100n
E_U1_ABM51         U1_RTO 0 VALUE { if( V(SS)>0, limit(V(U1_SSC)/V(SS), 100,0) 
+  
+ ,0)   }
X_U9         N148483620 VIN d_d1 PARAMS:
R_R31         GND PwPd  1m  
.ENDS TPS54239_TRANS


.subckt LDO_u6_S1 1 2 3 4  
S_u6_S1         3 4 1 2 _u6_S1
RS_u6_S1         1 2 1G
.MODEL         _u6_S1 VSWITCH Roff=1e8 Ron=100 Voff=3.6 Von=3.4
.ends LDO_u6_S1

.subckt TPS54239_TRANS_S18 1 2 3 4  
S_S18         3 4 1 2 _S18
RS_S18         1 2 1G
.MODEL         _S18 VSWITCH Roff=1e6 Ron=70m Voff=1 Von=3
.ends TPS54239_TRANS_S18

.subckt FAULTS_U2_S7 1 2 3 4  
S_U2_S7         3 4 1 2 _U2_S7
RS_U2_S7         1 2 1G
.MODEL         _U2_S7 VSWITCH Roff=1e11 Ron=1m Voff=.75 Von=.25
.ends FAULTS_U2_S7

.subckt FAULTS_U2_S12 1 2 3 4  
S_U2_S12         3 4 1 2 _U2_S12
RS_U2_S12         1 2 1G
.MODEL         _U2_S12 VSWITCH Roff=1e11 Ron=50 Voff=.6 Von=.4
.ends FAULTS_U2_S12

.subckt DCAP_U5_S7 1 2 3 4  
S_U5_S7         3 4 1 2 _U5_S7
RS_U5_S7         1 2 1G
.MODEL         _U5_S7 VSWITCH Roff=1e11 Ron=3 Voff=.25 Von=.75
.ends DCAP_U5_S7

.subckt DCAP_U5_S5 1 2 3 4  
S_U5_S5         3 4 1 2 _U5_S5
RS_U5_S5         1 2 1G
.MODEL         _U5_S5 VSWITCH Roff=1e11 Ron=3 Voff=.25 Von=.75
.ends DCAP_U5_S5

.subckt DCAP_U5_S6 1 2 3 4  
S_U5_S6         3 4 1 2 _U5_S6
RS_U5_S6         1 2 1G
.MODEL         _U5_S6 VSWITCH Roff=1e11 Ron=.9 Voff=.25 Von=.75
.ends DCAP_U5_S6

.subckt DCAP_U5_S12 1 2 3 4  
S_U5_S12         3 4 1 2 _U5_S12
RS_U5_S12         1 2 1G
.MODEL         _U5_S12 VSWITCH Roff=1e11 Ron=1 Voff=.25 Von=.75
.ends DCAP_U5_S12

.subckt DCAP_U5_S8 1 2 3 4  
S_U5_S8         3 4 1 2 _U5_S8
RS_U5_S8         1 2 1G
.MODEL         _U5_S8 VSWITCH Roff=1e11 Ron=.9 Voff=.25 Von=.75
.ends DCAP_U5_S8

.subckt TPS54239_TRANS_S17 1 2 3 4  
S_S17         3 4 1 2 _S17
RS_S17         1 2 1G
.MODEL         _S17 VSWITCH Roff=1e6 Ron=140m Voff=1 Von=2
.ends TPS54239_TRANS_S17

.subckt SOFTSTART_U1_S8 1 2 3 4  
S_U1_S8         3 4 1 2 _U1_S8
RS_U1_S8         1 2 1G
.MODEL         _U1_S8 VSWITCH Roff=1e11 Ron=1.0m Voff=0.25V Von=0.75V
.ends SOFTSTART_U1_S8

.subckt SOFTSTART_U1_S7 1 2 3 4  
S_U1_S7         3 4 1 2 _U1_S7
RS_U1_S7         1 2 1G
.MODEL         _U1_S7 VSWITCH Roff=1e11 Ron=10 Voff=.75 Von=.25
.ends SOFTSTART_U1_S7

.subckt SOFTSTART_U1_S5 1 2 3 4  
S_U1_S5         3 4 1 2 _U1_S5
RS_U1_S5         1 2 1G
.MODEL         _U1_S5 VSWITCH Roff=1e11 Ron=10 Voff=.75 Von=.25
.ends SOFTSTART_U1_S5


** Wrapper definitions for AA legacy support **

.subckt d_d1 1 2

d1 1 2 dd1

.model dd1 d
+ is=1e-015
+ tt=1e-011
+ rs=0.05
+ n=0.1

.ends d_d1

.subckt srlatchrhp_basic_gen s r q qb params: vdd=1 vss=0 vthresh=0.5 

rs s 0 1e11
rr r 0 1e11
gq 0 qint value = {if(v(r) > {vthresh},-5,if(v(s)>{vthresh},5, 0))}
cqint qint 0 1n
rqint qint 0 1000meg
d_d10 qint my5 d_d1
v1 my5 0 {vdd}
d_d11 myvss qint d_d1
v2 myvss 0 {vss} 
eq qqq 0 qint 0 1
x3 qqq qqqd1 buffer_ps
rqq qqqd1 q 1
eqb qbr 0 value = {if( v(q) > {vthresh}, {vss},{vdd})}
rqb qbr qb 1 
cdummy1 q 0 10p 
cdummy2 qb 0 10p
.ic v(qint) {vss}

.model d_d1 d
+ is=1e-015
+ tt=1e-011
+ rs=0.05
+ n=0.1

.ends srlatchrhp_basic_gen

.subckt delay in out

+ params:  t=100
s_s1         meas 0 reset2 0 s1
e_abm1         ch 0 value { if( v(in)>0.5,1,0)    }
e_abm3         out 0 value { if( v(meas)>0.5 & v(ch)>0.5,1,0)    }
r_r1         meas ch  {t} 
c_c1         0 meas  1.4427n  
e_abm2         reset 0 value { if(v(ch)<0.5,1,0)    }
r_r2         reset2 reset  0.1  
c_c2         0 reset2  1.4427n  

.model s1 vswitch
+ roff=1e+009
+ ron=1
+ voff=0.25
+ von=0.75

.ends delay

.subckt srlatchshp_basic_gen s r q qb params: vdd=5 vss=0 vthresh=2.5 

rs s 0 1e11
rr r 0 1e11
gq 0 qint value = {if(v(s) > {vthresh},5,if(v(r)>{vthresh},-5, 0))}
cqint qint 0 1n
rqint qint 0 1000meg
d_d10 qint my5 d_d1
v1 my5 0 {vdd}
d_d11 myvss qint d_d1
v2 myvss 0 {vss} 
eq qqq 0 qint 0 1
x3 qqq qqqd1 buffer_ps params: vhi={vdd} vlo={vss} vthresh={vthresh}
rqq qqqd1 q 1
eqb qbr 0 value = {if( v(q) > {vthresh}, {vss},{vdd})}
rqb qbr qb 1 
cdummy1 q 0 1n 
cdummy2 qb 0 1n 
.ic v(qint) {vss}

.model d_d1 d
+ is=1e-015
+ tt=1e-011
+ rs=0.05
+ n=0.1

.ends srlatchshp_basic_gen



****************************************
.subckt TPS54327_TRANS_S17 1 2 3 4  
S_S17         3 4 1 2 _S17
RS_S17         1 2 1G
.MODEL         _S17 VSWITCH Roff=1e8 Ron=100m Voff=1 Von=2
.ends TPS54327_TRANS_S17
*$

.subckt TPS54327_TRANS_S18 1 2 3 4  
S_S18         3 4 1 2 _S18
RS_S18         1 2 1G
.MODEL         _S18 VSWITCH Roff=1e8 Ron=70m Voff=1 Von=3
.ends TPS54327_TRANS_S18
*$

.SUBCKT AND A B OUT  
EOUT OUT1 0 VALUE { IF( V(A)>0.5 & V(B)>0.5,1,0) }
R1 OUT1 OUT 1
C1 OUT 0 10p
.ends AND
*$
.SUBCKT OR A B OUT  
EOUT OUT1 0 VALUE { IF( V(A)>0.5 | V(B)>0.5,1,0) }
R1 OUT1 OUT 1
C1 OUT 0 10p
.ends OR
*$
.SUBCKT NOR2 A B OUT  
EOUT OUT1 0 VALUE { IF( V(A)>0.5 | V(B)>0.5,0,1) }
R1 OUT1 OUT 1
C1 OUT 0 10p
.ends NOR2
*$
.SUBCKT NOR3 A B C OUT  
EOUT OUT1 0 VALUE { IF( V(A)>0.5 | V(B)>0.5 | V(C)>0.5,0,1) }
R1 OUT1 OUT 1
C1 OUT 0 10p
.ends NOR3
*$
.SUBCKT NOR4 A B C D OUT  
EOUT OUT1 0 VALUE { IF( V(A)>0.5 | V(B)>0.5 | V(C)>0.5 | V(D)>0.5,0,1) }
R1 OUT1 OUT 1
C1 OUT 0 10p
.ends NOR4
*$
.SUBCKT NAND3 A B C OUT  
EOUT OUT1 0 VALUE { IF( V(A)<0.5 & V(B)<0.5 & V(C)<0.5,1,0) }
R1 OUT1 OUT 1
C1 OUT 0 10p
.ends NAND3
*$
.SUBCKT NAND2 A B OUT  
EOUT OUT1 0 VALUE { IF( V(A)<0.5 & V(B)<0.5,1,0) }
R1 OUT1 OUT 1
C1 OUT 0 10p
.ends NAND2
*$
.SUBCKT AND3 A B C OUT  
EOUT OUT1 0 VALUE { IF( V(A)>0.5 & V(B)>0.5 & V(C)>0.5,1,0) }
R1 OUT1 OUT 1
C1 OUT 0 10p
.ends AND3
*$
.SUBCKT INVERTER IN OUT  
EOUT OUT1 0 VALUE { IF( V(IN)<0.5,1,0) }
R1 OUT1 OUT 1
C1 OUT 0 10p
.ends INVERTER
*$
.SUBCKT COMP_HYS2 INP OUT 
+ PARAMs:  TH=.5 HYS=0.1
EIN INP1 0 INP 0 1 
EHYS INP1 INP2 VALUE { IF( V(1)>0.5,-(HYS)/2,HYS/2) }
EOUT OUT 0 VALUE { IF( V(INP2)>TH,1,0) }
R1 OUT 1 1
C1 1 0 1n
RINP1 INP1 0 10K
.ends COMP_HYS2
*$

.SUBCKT NAND3_PS Y A B C PARAMS: vhi=1 vlo=0 vthresh=500e-3
+ tplh=1e-9 tphl=1e-9 tr=1e-9 tf=1e-9
RA A 0 1e11
CA A 0 0.01pF
RB B 0 1e11
CB B 0 0.01pF
RC C 0 1e11
CC C 0 0.01pF
VS VSUP 0 DC 1
ENAND3 Ypp 0 VALUE={IF(V(A) > {vthresh} & V(B) > {vthresh} & V(C) >
+ {vthresh}, 0, 1)}
ROUTpp Ypp 0 1e11
XNSW1 OUTp Ypp 0 NSW_PS PARAMS: RONval={(tplh+1e-15)/(1e-12*0.693)}
+ VTHval=0.5
XPSW1 OUTp Ypp VSUP PSW_PS PARAMS: RONval={(tphl+1e-15)/(1e-12*0.693)}
+ VTHval=0.5
CDEL1 OUTp 0 1pF
ETHRESH Yp 0 VALUE={IF(V(OUTp) > 0.5, 1, 0)}
ROUTp Yp 0 1e11
XNSW2 OUTr Yp 0 NSW_PS PARAMS: RONval={(tf+1e-15)/(1e-12*2.3)} VTHval=0.5
XPSW2 OUTr Yp VSUP PSW_PS PARAMS: RONval={(tr+1e-15)/(1e-12*2.3)} VTHval=0.5
CDEL2 OUTr 0 1pF
EOUT OUTf 0 VALUE={V(OUTr)*({vhi} - {vlo})+{vlo}}
RDR OUTf Y  1000
RO Y 0 1e11
.ENDS NAND3_PS
*$
.SUBCKT BUFFER_PS A Y PARAMS: vhi=1 vlo=0 vthresh=500e-3 tplh=1e-9
+ tphl=1e-9 tr=1e-9 tf=1e-9
RA A 0 1e11
CA A 0 0.01pF
VS VSUP 0 DC 1
EBUF1 Ypp 0 VALUE={IF(V(A) > ({vthresh}), 1, 0)}
ROUTpp Ypp 0 1e11
XNSW1 OUTp Ypp 0 NSW_PS PARAMS: RONval={(tplh+1e-15)/(1e-12*0.693)}
+ VTHval=0.5
XPSW1 OUTp Ypp VSUP PSW_PS PARAMS: RONval={(tphl+1e-15)/(1e-12*0.693)}
+ VTHval=0.5
CDEL1 OUTp 0 1pF
ETHRESH Yp 0 VALUE={IF(V(OUTp) > 0.5, 1, 0)}
ROUTp Yp 0 1e11
** add rise and fall *****
XNSW2 OUTr Yp 0 NSW_PS PARAMS: RONval={(tf+1e-15)/(1e-12*2.3)} VTHval=0.5
XPSW2 OUTr Yp VSUP PSW_PS PARAMS: RONval={(tr+1e-15)/(1e-12*2.3)} VTHval=0.5
CDEL2 OUTr 0 1pF
EOUT OUTf 0 VALUE={V(OUTr)*({vhi} - {vlo})+{vlo}}
RDR OUTf Y  1000
RO Y 0 1e11
.ENDS BUFFER_PS
*$
.SUBCKT INV_PS Y A PARAMS: vhi=1 vlo=0 vthresh=500e-3
+ tplh=1e-9 tphl=1e-9 tr=1e-9 tf=1e-9
RA A 0 1e11
CA A 0 0.01pF
VS VSUP 0 DC 1
EINV1 Ypp 0 VALUE={IF(V(A) > ({vthresh}), 0, 1)}
ROUTpp Ypp 0 1e11
XNSW1 OUTp Ypp 0 NSW_PS PARAMS: RONval={(tplh+1e-15)/(1e-12*0.693)}
+ VTHval=0.5
XPSW1 OUTp Ypp VSUP PSW_PS PARAMS: RONval={(tphl+1e-15)/(1e-12*0.693)}
+ VTHval=0.5
CDEL1 OUTp 0 1pF
ETHRESH Yp 0 VALUE={IF(V(OUTp) > 0.5, 1, 0)}
ROUTp Yp 0 1e11
XNSW2 OUTr Yp 0 NSW_PS PARAMS: RONval={(tf+1e-15)/(1e-12*2.3)} VTHval=0.5
XPSW2 OUTr Yp VSUP PSW_PS PARAMS: RONval={(tr+1e-15)/(1e-12*2.3)} VTHval=0.5
CDEL2 OUTr 0 1pF
EOUT OUTf 0 VALUE={V(OUTr)*({vhi} - {vlo})+{vlo}}
RDR OUTf Y  1000
RO Y 0 1e11
.ENDS INV_PS
*$
.SUBCKT OR4_PS Y A B C D PARAMS: vhi=1 vlo=0 vthresh=500e-3 tplh=1e-9
+ tphl=1e-9 tr=1e-9 tf=1e-9
RA A 0 1e11
CA A 0 0.01pF
RB B 0 1e11
CB B 0 0.01pF
RC C 0 1e11
CC C 0 0.01pF
RD D 0 1e11
CD D 0 0.01pF
VS VSUP 0 DC 1
EOR4 Ypp 0 VALUE={IF(V(A) > {vthresh} | V(B) > {vthresh}  | V(C) >
+ {vthresh}  | V(D) > {vthresh}, 1, 0)}
ROUTpp Ypp 0 1e11
XNSW1 OUTp Ypp 0 NSW_PS PARAMS: RONval={(tplh+1e-15)/(1e-12*0.693)}
+ VTHval=0.5
XPSW1 OUTp Ypp VSUP PSW_PS PARAMS: RONval={(tphl+1e-15)/(1e-12*0.693)}
+ VTHval=0.5
CDEL1 OUTp 0 1pF
ETHRESH Yp 0 VALUE={IF(V(OUTp) > 0.5, 1, 0)}
ROUTp Yp 0 1e11
XNSW2 OUTr Yp 0 NSW_PS PARAMS: RONval={(tf+1e-15)/(1e-12*2.3)} VTHval=0.5
XPSW2 OUTr Yp VSUP PSW_PS PARAMS: RONval={(tr+1e-15)/(1e-12*2.3)} VTHval=0.5
CDEL2 OUTr 0 1pF
EOUT OUTf 0 VALUE={V(OUTr)*({vhi} - {vlo})+{vlo}}
RDR OUTf Y  1000
RO Y 0 1e11
.ENDS OR4_PS
*$
.SUBCKT NAND2_PS Y A B PARAMS: vhi=1 vlo=0 vthresh=500e-3
+ tplh=1e-9 tphl=1e-9 tr=1e-9 tf=1e-9
RA A 0 1e11
CA A 0 0.01pF
RB B 0 1e11
CB B 0 0.01pF
VS VSUP 0 DC 1
ENAND2 Ypp 0 VALUE={IF(V(A) > {vthresh} & V(B) > {vthresh}, 0, 1)}
ROUTpp Ypp 0 1e11
***** add delay lines ****
XNSW1 OUTp Ypp 0 NSW_PS PARAMS: RONval={(tplh+1e-15)/(1e-12*0.693)}
+ VTHval=0.5
XPSW1 OUTp Ypp VSUP PSW_PS PARAMS: RONval={(tphl+1e-15)/(1e-12*0.693)}
+ VTHval=0.5
CDEL1 OUTp 0 1pF
ETHRESH Yp 0 VALUE={IF(V(OUTp) > 0.5, 1, 0)}
ROUTp Yp 0 1e11
** add rise and fall *****
XNSW2 OUTr Yp 0 NSW_PS PARAMS: RONval={(tf+1e-15)/(1e-12*2.3)} VTHval=0.5
XPSW2 OUTr Yp VSUP PSW_PS PARAMS: RONval={(tr+1e-15)/(1e-12*2.3)} VTHval=0.5
CDEL2 OUTr 0 1pF
EOUT OUTf 0 VALUE={V(OUTr)*({vhi} - {vlo})+{vlo}}
RDR OUTf Y  1000
RO Y 0 1e11
.ENDS NAND2_PS
*$
.SUBCKT NSW_PS D G S PARAMS: RONval=10k VTHval=0.7 VCHARval=0.01
+ CGval=0.01pF CDval=0.01pF 
RDDUM D 0 1e11
RSDUM S 0 1e11
RGDUM G 0 1e11
CG G D {CGval}
CD D S {CDval}
EEXP F1 0 VALUE={LIMIT(((V(G,S)-VTHval)/VCHARval),-80,80)} 
GOUT D S VALUE={V(D,S)/(RONval*(1+EXP(-LIMIT(((V(G,S)-VTHval)/VCHARval)
+,-80,80))))}
.ENDS NSW_PS
*$
.SUBCKT PSW_PS D G S PARAMS: RONval=10k VTHval=0.7 VCHARval=0.01
+ CGval=0.01pF CDval=0.01pF 
RDDUM D 0 1e11
RSDUM S 0 1e11
RGDUM G 0 1e11
CG G D {CGval}
CD D S {CDval}
EEXP F1 0 VALUE={LIMIT(((V(S,G)-VTHval)/VCHARval),-80,80)} 
GOUT S D VALUE={V(S,D)/(RONval*(1+EXP(-LIMIT(((V(S,G)-VTHval)/VCHARval)
+,-80,80))))}
.ENDS PSW_PS
*$

.SUBCKT D_D2 1 2
D1 1 2 DD2
.MODEL DD2 D( IS=1e-15 TT=10p Rs=0.01 N=.01  )
.ENDS D_D2
*$
.SUBCKT BUF_DELAY_BASIC_GEN A  Y PARAMS: VDD=5 VSS=0 VTHRESH=2.5
+ DELAY = 10n 
E_ABMGATE1    YINT1 0 VALUE {{IF(V(A) > {VTHRESH} , 
+ {VDD},{VSS})}}
RINT YINT1 YINT2 1
CINT YINT2 0 {DELAY*1.3}
E_ABMGATE2    YINT3 0 VALUE {{IF(V(YINT2) > {VTHRESH} , 
+ {VDD},{VSS})}}
RINT2 YINT3 Y 1
CINT2 Y 0 1n
.ENDS BUF_DELAY_BASIC_GEN
*$
.SUBCKT MONOPOS_PS in Q Qn PARAMS: PW=250u 
VS VSUP 0 DC 1
r1 Q 0 1e11
GIN VSUP YA VALUE={IF(V(IN)>0.5, V(VSUP)/1000K, 0)}
GDIS YA 0 VALUE={IF(V(IN)>0.5,0, V(YA)/1m)}
CIN YA 0 1n IC=0
RIN YA 0 1e11
EABM1 YTD 0 VALUE={IF(V(YA)> {PW*1000}, 1, 0)}
RYTD YTD 0 1e11
EXOR P 0 VALUE={IF(V(YTD) > 0.5 ^ V(IN) > .5, 1, 0)}
ROUTpp2 P 0 1e11
EAND1 Q1 0 VALUE={ IF(V(P)>0.5 & V(IN)>0.5, 1, 0)}
Ro1 Q1 Q 1m
Co1 Q 0 1p
ROUT2 Q 0 1e11
EAND2 Qn1 0 VALUE={ IF(V(Q)>0.5, 0, 1)}
Ro2 Qn1 Qn 1m
Co2 Qn 0 1p
ROUT4 Qn 0 1e11
.ENDS MONOPOS_PS
*$
.SUBCKT CESR IN OUT
+ PARAMs:  C=100u ESR=0.01 X=2 IC=0
C	IN 1  {C*X} IC={IC}
RESR	1 OUT {ESR/X}
.ENDS CESR
*$
.SUBCKT LDCR IN OUT
+ PARAMs:  L=1u DCR=0.01 IC=0
L	IN 1  {L} IC={IC}
RDCR	1 OUT {DCR}
.ENDS LDCR
*$