*$
* TPS51218
*****************************************************************************
*  (C) Copyright 2009 Texas Instruments Incorporated. All rights reserved.
*****************************************************************************
** This model is designed as an aid for customers of Texas Instruments.
** TI and its licensors and suppliers make no warrenties, either expressed
** or implied, with respect to this model, including the warranties of 
** merchantability or fitness for a particular purpose.  The model is
** provided solely on an "as is" basis.  The entire risk as to its quality
** and performance is with the customer
*****************************************************************************
*
** Released by: Analog eLab Design Center, Texas Instruments Inc.
* Part: TPS51218
* Date: 01/25/2010
* Model Type: TRANSIENT
* Simulator: PSPICE
* Simulator Version: 16.0.0.P001
* EVM Order Number: TPS51218EVM- HPA496A
* EVM Users Guide: SLVU346 JAN 2010
* Datasheet: SLUS935A REVISED JUNE 2009
*
* Model Version: Final 1.00
*
*****************************************************************************
*
* Updates:
*
* Final 1.00
* Release to Web.
*
*****************************************************************************
.SUBCKT TPS51218 EN RF SW VBST DRVH DRVL PGOOD VFB TRIP
+ V5IN GND PARAMS: SPEED=1 PGDEL=1
REN en gnd 1e8
X_U243         BLNKM NCLB N11095242 OR
E_ABM49         N12964573 0 VALUE { if(V(RMP)>0.1  
+ & V(ENCIR)>.5, 1,0)   }
X_U210         N11743889 ENHI_TOGG BUFFER_PS PARAMS: VHI=1 VLO=0
+ VTHRESH=500E-3
+  TPLH=2n TPHL=20u TR=1E-9 TF=1E-9
E_ABM11         OCLHI 0 VALUE { if( V(OCLTHR)  
+ >V(LLO) ,1,0)   }
X_U309         N11098932 N11100080 INV_PS PARAMS: VHI=1 VLO=0
+ VTHRESH=500E-3
+  TPLH=10n TPHL=1E-9 TR=1E-9 TF=1E-9
X_U50         OVS ENHI_TOGG OVLATCH N11099634 srnandlatchshp_basic 
X_U246         N12239510 TBLNKB INVERTER
X_U269         LOW_READY LOW_DELAY ONB ZC NAND3_PS PARAMS: VHI=1 VLO=0
+  VTHRESH=500E-3 TPLH=1E-9 TPHL=1E-9 TR=1E-9 TF=1E-9
E_ABM9         LLO 0 VALUE { if( V(N11095018)>0.5,  
+ V(SW),  
+ V(GND) )  }
X_U282         HIDRIVE N11100818 N11102186 AND
V_V77         N11100662 GND 2.7
X_U298         N11095110 N128349621 INVERTER
E_ABM8         MODECHECK 0 VALUE { if( V(PWMMODE)>0.5,  
+ V(N11426627),  
+ V(GND) )  }
X_U266         N11095332 ON TOS ENCIRD NAND3_PS PARAMS: VHI=1 VLO=0
+  VTHRESH=500E-3 TPLH=1E-9 TPHL=1E-9 TR=1E-9 TF=1E-9
E_ABM18         ENCIR 0 VALUE { if(V(VREFS)>0.699,1,0)    }
X_U46         LOW_C P925VREF VFB COMPIDEAL_PS PARAMS: TD=1E-9 TT=1E-9
C_C6         GND N12468488  5p IC=0 TC=0,0 
X_U242         BLNKM N11098982 OCLDIS OR
X_U239         N12929032 LOOPB INVERTER
X_U249         ON ONB INVERTER
X_U300         ONG N122824771 INV_PS PARAMS: VHI=1 VLO=0 VTHRESH=500E-3
+  TPLH=1E-9 TPHL=1E-9 TR=1E-9 TF=1E-9
E_E4         RFSEL GND N11473488 GND 1E7
E_ABM39         ADD2 0 VALUE { if(V(SW2)>0.5,0.853,0)    }
E_ABM2         SSEND 0 VALUE { if(V(SS)>0.699, 1,0)    }
E_ABM40         N11281568 0 VALUE { ( V(ADD3)  
+ +V(ADD4) )    }
R_R6         N12468488 N12468476  1.6Meg TC=0,0 
X_U284         LOWDRIVE N11098932 N11102096 AND
E_ABM33         OVS 0 VALUE { if( V(ENCIRD)> 0.5 &  
+ V(OVD)>0.5,1,0)   }
X_U286         N13057444 QRMP LBB ENCIRD NAND3_PS PARAMS: VHI=1 VLO=0
+  VTHRESH=500E-3 TPLH=1E-9 TPHL=1E-9 TR=1E-9 TF=1E-9
R_R20         GND TO_DELAY  1e6  
R_R15         GND ENHI_TOGG  1E8  
X_U296         BLNKM TBLNKB N11102362 NAND2_PS PARAMS: VHI=1 VLO=0
+  VTHRESH=500E-3 TPLH=1E-9 TPHL=1E-9 TR=1E-9 TF=1E-9
X_U240         NCL NCLB INVERTER
X_U259         N11099406 OCLDIS OCLDIS ONS2 NAND3_PS PARAMS: VHI=1 VLO=0
+  VTHRESH=500E-3 TPLH=1E-9 TPHL=1E-9 TR=1E-9 TF=1E-9
E_ABM5         P675VREF 0 VALUE { V(VP7) * 0.7    }
X_U283         N11099756 N110964421 N111007581 AND
* EX1 SP0 0 VALUE={SPEED}
* G_SP1 V5FILT SS VALUE {IF(V(N11102216)>0.5 & V(SP0)>0.5, 1.4u,0)}
* G_ABMII2 V5FILT SS VALUE { if(V(N11102216)>0.5,({1.4u * SPEED}+0.7u),0)}
G_ABMII2 V5FILT SS N11102216 GND {0.7u + SPEED*1.4u}
E_E7         RMPIN GND RMP GND 2.33m
X_S9    L_PGOOD GND PGOOD GND TPS51218_TRANS_S9 
E_ABM12         NCL 0 VALUE { if( V(LLO)  
+ >V(N11099026) ,1,0)   }
X_U263         SSENDSET ENCIRD ENCIRD N11095132 NAND3_PS PARAMS: VHI=1 VLO=0
+  VTHRESH=500E-3 TPLH=1E-9 TPHL=1E-9 TR=1E-9 TF=1E-9
E_ABM28         N11095018 0 VALUE { if( V(SW)<0.5  
+ & V(ON)<0.5 ,1,0)   }
X_U276         OVP N11095236 LOWDRIVE OR
G_ABM2I3         V5FILT RMP VALUE { if(V(ENCIRD)>0.5, (3.5u/V(TSEL)),0)}
C_C7         GND SWAVG  5p IC=0 TC=0,0 
V_V87         N11099026 MODECHECK -5m
X_U270         N11098248 N110957122 ON1 NOR2
X_U204         N111007581 N11098252 BUFFER_PS PARAMS: VHI=1 VLO=0
+  VTHRESH=500E-3 TPLH=20E-9 TPHL=2E-9 TR=1E-9 TF=1E-9
E_ABM19         N11101396 0 VALUE { if( V(N11100856)  
+ >V(TON) ,1,0)   }
X_U265         ON ONSET ONSET N11095332 NAND3_PS PARAMS: VHI=1 VLO=0
+  VTHRESH=500E-3 TPLH=1E-9 TPHL=1E-9 TR=1E-9 TF=1E-9
E_ABM41         N11730840 0 VALUE { ( V(N11281578)  
+ +V(N11281568) )    }
X_U219         N11102216 N110986101 INVERTER
E_ABM27         ADD1 0 VALUE { if(V(SW1)>0.5,1,0)    }
X_U279         HIDRIVE N110964421 INVERTER
X_U277         ZC N11102690 N11102362 OR
X_U252         PWMMODE NCL N13139679 AND
X_U273         QRMP N12964573 N12964573 N13057444 NAND3_PS
+ PARAMS: VHI=1 VLO=0
+  VTHRESH=500E-3 TPLH=1E-9 TPHL=1E-9 TR=1E-9 TF=1E-9
G_ABMII1         V5FILT TRIP VALUE { if(V(ENCIRD)>0.5, 10u,0)    }
X_U271         HI_DEL N12277012 LOW_DELAY NOR2
X_U272         LOW_READY SSENDSET UVP N11095236 NOR3
R_R7         SWAVG N12468488  1.6Meg TC=0,0 
C_C4         GND TON  10p IC=0 TC=0,0 
X_U202         N110956321 N11100080 BUFFER_PS PARAMS: VHI=1 VLO=0
+  VTHRESH=500E-3 TPLH=20E-9 TPHL=2E-9 TR=1E-9 TF=1E-9
X_U114         V5IN VBST DIDEAL_PS PARAMS: RON=1E-4 ROFF=1E9
X_U304         N128373031 DRH2 INVERTER
E_ABM22         POSREF 0 VALUE { if( V(SS)  
+ <V(VREFS) ,V(SS),V(VREFS))   }
X_U244         LUPB N13139679 N12929032 OR
X_U13          P675VREF VFB HYSTVAL UV COMP_HYS
X_U280         LOWDRIVE N110956322 INVERTER
X_U248         HI_READY N12277012 INVERTER
X_U294         HI_READY ON ON1 NAND2_PS PARAMS: VHI=1 VLO=0 VTHRESH=500E-3
+  TPLH=1E-9 TPHL=1E-9 TR=1E-9 TF=1E-9
G_G1         V5FILT GND ENCIR GND 350u
X_U191         N11102570 N11101836 BUFFER_PS PARAMS: VHI=1
+ VLO=0 VTHRESH=500E-3
+  TPLH=2n TPHL=50n TR=1E-9 TF=1E-9
X_U262         ZC N11095302 TBLNKB ENCIRD NAND3_PS PARAMS: VHI=1 VLO=0
+  VTHRESH=500E-3 TPLH=1E-9 TPHL=1E-9 TR=1E-9 TF=1E-9
V_V89         VP7 GND 0.7
E_ABM32         UVS 0 VALUE { if( V(SSEND)> 0.5 &  
+ V(UVD)>0.5,1,0)   }
X_U295         N11095154 HI_DEL HIDRIVE NAND2_PS PARAMS: VHI=1 VLO=0
+  VTHRESH=500E-3 TPLH=1E-9 TPHL=1E-9 TR=1E-9 TF=1E-9
R_R21         GND SS  10Meg  
X_S8    DRL2 GND DRVL GND TPS51218_TRANS_S8 
E_ABM24         N11102216 0 VALUE { if(V(ENCIRD)>0.5,1,0)    }
X_U220         N11579823 L_PGOOD INVERTER
G_ABM2I1         V5FILT TON VALUE { if(V(DQOS)<0.25, V(SW)/320K,0)    }
E_ABM23         N110953480 0 VALUE { if(V(ENCIR)>0.5,1,0)    }
E_ABM6         1P125VREF 0 VALUE { V(VP7) * 1.2    }
X_U292         N11098806 N128268531 INVERTER
X_U290         N11100080 N128251681 INVERTER
C_C8         GND RMP  4p IC=0 TC=0,0 
X_S6    DRH2 GND DRVH SW TPS51218_TRANS_S6 
R_R18         V5IN V5FILT  3.32  
X_S3    ENHI_RECAL GND N11730840 TSEL TPS51218_TRANS_S3 
E_ABM14         N11096602 0 VALUE { if( V(ENP)> 0.5 &  
+ V(V5INOK)>0.5,1,0)   }
X_U257         N11098890 LBB LBB ONS1 NAND3_PS PARAMS: VHI=1 VLO=0
+  VTHRESH=500E-3 TPLH=1E-9 TPHL=1E-9 TR=1E-9 TF=1E-9
E_ABM17         ENP 0 VALUE { if(V(EN)>1,1,0)    }
X_U203         N11102186 N11095110 BUFFER_PS PARAMS: VHI=1
+ VLO=0 VTHRESH=500E-3
+  TPLH=20E-9 TPHL=2E-9 TR=1E-9 TF=1E-9
X_U275         DRVOFF OVP HI_READY UVP HIDRIVE NOR4
X_U250         QRMP QRMPB INVERTER
X_U35         OV OVD delay PARAMS: T=5000
E_E2         N11258135 GND ENHI_TOGG GND .1
E_ABM15         REFEFF 0 VALUE { V(POSREF)  
+ + V(RAMP)   }
E_ABM44         ADD3 0 VALUE { if(V(SW3)>0.5,0.763,0)    }
X_U23          VFB 1P125VREF HYSTVAL OV COMP_HYS
X_U274         ENCIRD DRVOFF INVERTER
R_R24         GND RMP  10Meg TC=0,0 
R_R22         GND SSEND  1Meg  
E_ABM31         N11579823 0 VALUE { if(V(AFTER_DELAY)>0.5,1,0)    }
X_U201         N11102096 N11098806 BUFFER_PS PARAMS: VHI=1
+ VLO=0 VTHRESH=500E-3
+  TPLH=20E-9 TPHL=2E-9 TR=1E-9 TF=1E-9
X_U308         N11100028 N11098806 INV_PS PARAMS: VHI=1 VLO=0
+ VTHRESH=500E-3
+  TPLH=10n TPHL=1E-9 TR=1E-9 TF=1E-9
X_U297         EN N11743889 ENHI_RECAL MONOPOS_PS PARAMS: PW=230u
E_ABM46         RAMP 0 VALUE { if(V(ENCIRD)>0.5,   
+ LIMIT((V(RMPIN)-0.007),-7m,3.5m),0)   }
X_U260         ONS2 N11099406 TBLNKB ENCIRD NAND3_PS PARAMS: VHI=1 VLO=0
+  VTHRESH=500E-3 TPLH=1E-9 TPHL=1E-9 TR=1E-9 TF=1E-9
E_ABM21         HYSTVAL 0 VALUE { V(VP7) * 0.1    }
C_C12         GND TSEL  10 IC=0 TC=0,0 
X_U264         N11095132 SSENDSET N11095154 SSEND NAND3_PS
+ PARAMS: VHI=1 VLO=0
+  VTHRESH=500E-3 TPLH=1E-9 TPHL=1E-9 TR=1E-9 TF=1E-9
X_U188         TBLNK N12239510 BUFFER_PS PARAMS: VHI=1 VLO=0
+ VTHRESH=500E-3
+  TPLH=2E-9 TPHL=30E-9 TR=1E-9 TF=1E-9
R_R5         N12468476 SW  1.6Meg TC=0,0 
G_ABM2I2         TON GND VALUE { if(V(DQOS) >.75, V(TON)/200,0)    }
C_C11         GND V5FILT  1u IC=0 
X_U299         N122824771 LOW_READY INV_PS PARAMS: VHI=1 VLO=0
+ VTHRESH=500E-3
+  TPLH=200n TPHL=10E-9 TR=1E-9 TF=1E-9
E_ABM42         VSEL 0 VALUE { ( V(TSEL)  
+ * V(SWAVG) )    }
E_ABM13         TO_DELAY 0 VALUE { if( V(HIGH_C)>0.5  
+ & V(LOW_C)>0.5   
+ & V(ENCIR)>0.5, 1, 0 )  }
X_S2    DISCH GND SW GND TPS51218_TRANS_S2 
X_S7    DRL1 GND V5IN DRVL TPS51218_TRANS_S7 
X_U302         N128349621 DRH1 INVERTER
X_U258         ONS1 N11098890 TBLNKB ENCIRD NAND3_PS PARAMS: VHI=1 VLO=0
+  VTHRESH=500E-3 TPLH=1E-9 TPHL=1E-9 TR=1E-9 TF=1E-9
X_U245         N11098248 N11102690 INVERTER
X_U47         HIGH_C VFB 1P075VREF COMPIDEAL_PS PARAMS: TD=1E-9 TT=1E-9
E_ABM3         N11102512 0 VALUE { if(V(DRVH)>5,1,0)    }
R_R27         GND AFTER_DELAY  1e6  
E_ABM35         OVP 0 VALUE { if( V(OVLATCH)> 0.5 &  
+ V(ENCIRD)>0.5,1,0)   }
X_U238         ENCIRD OCLHI N11098982 AND
X_S5    DRH1 GND VBST DRVH TPS51218_TRANS_S5 
E_E6         N11426627 GND TRIP GND 0.125
R_R16         VREF VREFS  10k  
X_U268         N11101694 ENCIRD ONG TBLNK NAND3_PS PARAMS: VHI=1 VLO=0
+  VTHRESH=500E-3 TPLH=1E-9 TPHL=1E-9 TR=1E-9 TF=1E-9
E_ABM43         N11281578 0 VALUE { ( V(ADD1)  
+ +V(ADD2) )    }
X_U261         N11095302 N11095242 N11095242 ZC NAND3_PS PARAMS: VHI=1 VLO=0
+  VTHRESH=500E-3 TPLH=1E-9 TPHL=1E-9 TR=1E-9 TF=1E-9
E_ABM36         PWMMODE 0 VALUE { if(V(RF) >1.8, 1,0)    }
E_ABM34         UVP 0 VALUE { if( V(UVLATCH)> 0.5 &  
+ V(SSEND)>0.5,1,0)   }
X_U281         N11102512 N11101836 HI_DEL AND
X_S4    ENHI_TOGG GND RF N11837149 TPS51218_TRANS_S4 
X_U26         UV UVD delay PARAMS: PARAMS: T=32000
X_U307         N11100818 N11098252 INV_PS PARAMS: VHI=1 VLO=0
+ VTHRESH=500E-3
+  TPLH=10n TPHL=1E-9 TR=1E-9 TF=1E-9
E_ABM51         DISCH 0 VALUE { if( V(OVP)>0.5 |  
+ V(UVP) >0.5 |  
+ V(EN) <1,1,0)  }
E_ABM4         SW1 0 VALUE { if(V(RFSEL)<2.13, 1,0)    }
E_ABM10         LUPB 0 VALUE { if( V(REFEFF)  
+ >V(VFB) ,1,0)   }
X_H1    N11258135 N11837149 N11473488 GND TPS51218_TRANS_H1 
X_U208         N110953480 ENCIRD BUFFER_PS PARAMS: VHI=1 VLO=0
+ VTHRESH=500E-3
+  TPLH=250u TPHL=2E-9 TR=1E-9 TF=1E-9
R_R2         GND PWMMODE  1Meg TC=0,0 
X_U267         TBLNK N11101694 TOS TOS NAND3_PS PARAMS: VHI=1 VLO=0
+  VTHRESH=500E-3 TPLH=1E-9 TPHL=1E-9 TR=1E-9 TF=1E-9
X_U278         HI_READY N11102570 INVERTER
X_U303         N11098252 N128373031 INVERTER
E_ABM20         ONS3 0 VALUE { if( V(SWAVG)  
+ >V(N11100662) ,1,0)   }
E_ABM16         SW2 0 VALUE { if(V(RFSEL)>4.5 & V(RFSEL)<5.5, 1,0)    }
E_ABM45         ADD4 0 VALUE { if(V(SW4)>0.5,0.674,0)    }
R_R14         GND ENHI_RECAL  1E8  
C_C9         GND VREFS  5p IC=0 TC=0,0 
R_R23         GND TON  10Meg TC=0,0 
X_U216         N11101396 ENCIRD N11102424 AND
X_U207         SS V5FILT DIDEAL_PS PARAMS: RON=1E-3 ROFF=1E9
X_U38         TRIP V5FILT DIDEAL_PS PARAMS: RON=1E-3 ROFF=1E9
E_ABM37         SW3 0 VALUE { if(V(RFSEL)>9.5 & V(RFSEL)<10.5, 1,0)    }
R_R12         GND N11099634  1Meg  
X_U8         TO_DELAY AFTER_DELAY delay PARAMS: T={1000000*PGDEL}
X_U193         HI_READY DQOS BUFFER_PS PARAMS: VHI=1 VLO=0
+ VTHRESH=500E-3
+  TPLH=2E-9 TPHL=2E-9 TR=1E-9 TF=1E-9
R_R4         GND RFSEL  1Meg TC=0,0 
E_E5         GND OCLTHR GND TRIP -0.125
X_U48         UVS ENHI_TOGG UVLATCH N11098238 srnandlatchshp_basic 
R_R11         GND N11098238  1Meg  
X_S11    QRMPB GND RMP GND TPS51218_TRANS_S11 
X_U247         LOW_READY N110957122 INVERTER
E_ABM1         VREF 0 VALUE { if(V(N11096602)>.5V,0.7,0)    }
X_U192         DRVL N11098248 BUFFER_PS PARAMS: VHI=1 VLO=0 VTHRESH=2.5
+  TPLH=2E-9 TPHL=2E-9 TR=1E-9 TF=1E-9
X_S10    N110986101 GND SS GND TPS51218_TRANS_S10 
E_ABM26         P925VREF 0 VALUE { V(VP7) * 0.9    }
E_ABM25         1P075VREF 0 VALUE { V(VP7) * 1.15    }
V_V82         N11100856 VSEL 70m
X_U241         BLNKM LOOPB LBB OR
X_U15          V5IN V5INOK COMP_HYS2 PARAMS:  TH=4.2 HYS=.3
X_U306         N11099756 N11095110 INV_PS PARAMS: VHI=1 VLO=0
+ VTHRESH=500E-3
+  TPLH=10n TPHL=1E-9 TR=1E-9 TF=1E-9
X_U293         N128268531 DRL1 INVERTER
X_U285         N11100028 N110956322 N110956321 AND
C_C3         GND SS  1n IC=0
R_R33         GND TSEL  1e6  
E_ABM38         SW4 0 VALUE { if( V(RFSEL)>25, 1,0)    }
X_U291         N128251681 DRL2 INVERTER
C_C5         GND N12468476  15p IC=0 TC=0,0 
X_U217         DQOS N11102424 TOS OR
X_U142         ONSET ONS3 ONS1 ONS2 TBLNK OR4_PS PARAMS: VHI=1 VLO=0
+  VTHRESH=500E-3 TPLH=1E-9 TPHL=1E-9 TR=1E-9 TF=1E-9
.ends tps51218
*$
.subckt TPS51218_TRANS_S9 1 2 3 4  
S_S9         3 4 1 2 _S9
RS_S9         1 2 1G
.MODEL         _S9 VSWITCH Roff=1e6 Ron=1.0 Voff=0.25 Von=0.75
.ends TPS51218_TRANS_S9
*$
.subckt TPS51218_TRANS_S8 1 2 3 4  
S_S8         3 4 1 2 _S8
RS_S8         1 2 1G
.MODEL         _S8 VSWITCH Roff=1e11 Ron=0.5 Voff=.25 Von=.75
.ends TPS51218_TRANS_S8
*$
.subckt TPS51218_TRANS_S6 1 2 3 4  
S_S6         3 4 1 2 _S6
RS_S6         1 2 1G
.MODEL         _S6 VSWITCH Roff=1e11 Ron=0.7 Voff=.25 Von=.75
.ends TPS51218_TRANS_S6
*$
.subckt TPS51218_TRANS_S3 1 2 3 4  
S_S3         3 4 1 2 _S3
RS_S3         1 2 1G
.MODEL         _S3 VSWITCH Roff=1e11 Ron=1.0e-8 Voff=1 Von=0
.ends TPS51218_TRANS_S3
*$
.subckt TPS51218_TRANS_S2 1 2 3 4  
S_S2         3 4 1 2 _S2
RS_S2         1 2 1G
.MODEL         _S2 VSWITCH Roff=1e8 Ron=20 Voff=0.0V Von=1.0V
.ends TPS51218_TRANS_S2
*$
.subckt TPS51218_TRANS_S7 1 2 3 4  
S_S7         3 4 1 2 _S7
RS_S7         1 2 1G
.MODEL         _S7 VSWITCH Roff=1e11 Ron=1 Voff=.25 Von=.75
.ends TPS51218_TRANS_S7
*$
.subckt TPS51218_TRANS_S5 1 2 3 4  
S_S5         3 4 1 2 _S5
RS_S5         1 2 1G
.MODEL         _S5 VSWITCH Roff=1e11 Ron=1.5 Voff=.25 Von=.75
.ends TPS51218_TRANS_S5
*$
.subckt TPS51218_TRANS_S4 1 2 3 4  
S_S4         3 4 1 2 _S4
RS_S4         1 2 1G
.MODEL         _S4 VSWITCH Roff=1e10 Ron=1.0 Voff=0.0V Von=1.0V
.ends TPS51218_TRANS_S4
*$
.subckt TPS51218_TRANS_H1 1 2 3 4  
H_H1         3 4 VH_H1 1
VH_H1         1 2 0V
.ends TPS51218_TRANS_H1
*$
.subckt TPS51218_TRANS_S11 1 2 3 4  
S_S11         3 4 1 2 _S11
RS_S11         1 2 1G
.MODEL         _S11 VSWITCH Roff=1e11 Ron=1 Voff=.25 Von=.75
.ends TPS51218_TRANS_S11
*$
.subckt TPS51218_TRANS_S10 1 2 3 4  
S_S10         3 4 1 2 _S10
RS_S10         1 2 1G
.MODEL         _S10 VSWITCH Roff=1e11 Ron=1.0m Voff=0.25 Von=0.75
.ends TPS51218_TRANS_S10
*$
.SUBCKT NMOSIDEAL_PS  D G S PARAMS: k=1 vth=0.5
RDDUM D 0 1e11
RSDUM S 0 1e11
RGDUM G 0 1e11
CG G D 0.01pF
CD D S 0.01pF
EON Yp 0 VALUE={IF(V(G,S) > {vth}, 1, 0)}
GOUT D S VALUE={IF(V(D,S) > (V(G,S)-{vth}), V(Yp)*({k}/2)*(V(G,S)-{vth})**2,
+ V(Yp)*({k})*(V(G,S)-{vth}-(V(D,S)/2))*V(D,S))}
.ENDS
*$
.SUBCKT PMOSIDEAL_PS D G S PARAMS: k=1 vth=0 
RDDUM D 0 1e11
RSDUM S 0 1e11
RGDUM G 0 1e11
CG G D 0.01pF
CD D S 0.01pF
EON Yp 0 VALUE={IF(V(S,G) > {vth}, -1, 0)}
GOUT D S VALUE={IF(V(S,D) > (V(S,G)-{vth}), V(Yp)*({k}/2)*(V(S,G)-{vth})**2,
+ V(Yp)*({k})*(V(S,G)-{vth}-(V(S,D)/2))*V(S,D))}
.ENDS PMOSIDEAL_PS
*$
.SUBCKT AND A B OUT  
EOUT OUT1 0 VALUE { IF( V(A)>0.5 & V(B)>0.5,1,0) }
R1 OUT1 OUT 1
C1 OUT 0 10p
.ends AND
*$
.SUBCKT OR A B OUT  
EOUT OUT1 0 VALUE { IF( V(A)>0.5 | V(B)>0.5,1,0) }
R1 OUT1 OUT 1
C1 OUT 0 10p
.ends OR
*$
.SUBCKT NOR2 A B OUT  
EOUT OUT1 0 VALUE { IF( V(A)>0.5 | V(B)>0.5,0,1) }
R1 OUT1 OUT 1
C1 OUT 0 10p
.ends NOR2
*$
.SUBCKT NOR3 A B C OUT  
EOUT OUT1 0 VALUE { IF( V(A)>0.5 | V(B)>0.5 | V(C)>0.5,0,1) }
R1 OUT1 OUT 1
C1 OUT 0 10p
.ends NOR3
*$
.SUBCKT NOR4 A B C D OUT  
EOUT OUT1 0 VALUE { IF( V(A)>0.5 | V(B)>0.5 | V(C)>0.5 | V(D)>0.5,0,1) }
R1 OUT1 OUT 1
C1 OUT 0 10p
.ends NOR4
*$
.SUBCKT NAND3 A B C OUT  
EOUT OUT1 0 VALUE { IF( V(A)<0.5 & V(B)<0.5 & V(C)<0.5,1,0) }
R1 OUT1 OUT 1
C1 OUT 0 10p
.ends NAND3
*$
.SUBCKT NAND2 A B OUT  
EOUT OUT1 0 VALUE { IF( V(A)<0.5 & V(B)<0.5,1,0) }
R1 OUT1 OUT 1
C1 OUT 0 10p
.ends NAND2
*$
.SUBCKT AND3 A B C OUT  
EOUT OUT1 0 VALUE { IF( V(A)>0.5 & V(B)>0.5 & V(C)>0.5,1,0) }
R1 OUT1 OUT 1
C1 OUT 0 10p
.ends AND3
*$
.SUBCKT INVERTER IN OUT  
EOUT OUT1 0 VALUE { IF( V(IN)<0.5,1,0) }
R1 OUT1 OUT 1
C1 OUT 0 10p
.ends INVERTER
*$
.SUBCKT COMP_HYS INP INM HYS OUT 
EIN INP1 INM1 INP INM 1 
EHYS INP1 INP2 VALUE { IF( V(1)>0.5,-V(HYS)/2,V(HYS)/2) }
EOUT OUT 0 VALUE { IF( V(INP2)>V(INM1),1,0) }
R1 OUT 1 1
C1 1 0 1n
RINP1 INP1 0 10K
.ends COMP_HYS
*$
.SUBCKT COMP_HYS2 INP OUT 
+ PARAMs:  TH=.5 HYS=0.1
EIN INP1 0 INP 0 1 
EHYS INP1 INP2 VALUE { IF( V(1)>0.5,-(HYS)/2,HYS/2) }
EOUT OUT 0 VALUE { IF( V(INP2)>TH,1,0) }
R1 OUT 1 1
C1 1 0 1n
RINP1 INP1 0 10K
.ends COMP_HYS2
*$
.SUBCKT DELAY IN OUT
+ PARAMs:  T=100
S_S1         MEAS 0 RESET2 0 S1
E_ABM1         CH 0 VALUE { if( V(IN)>0.5,1,0)    }
E_ABM3         OUT 0 VALUE { if( V(MEAS)>0.5 & V(CH)>0.5,1,0)    }
R_R1         MEAS CH  {T} 
C_C1         0 MEAS  1.4427n  
E_ABM2         RESET 0 VALUE { if(V(CH)<0.5,1,0)    }
R_R2         RESET2 RESET  0.1  
C_C2         0 RESET2  1.4427n  
.MODEL         S1 VSWITCH Roff=1e9 Ron=1.0 Voff=0.25V Von=0.75V
.ENDS DELAY
*$
.SUBCKT NAND3_PS Y A B C PARAMS: vhi=1 vlo=0 vthresh=500e-3
+ tplh=1e-9 tphl=1e-9 tr=1e-9 tf=1e-9
RA A 0 1e11
CA A 0 0.01pF
RB B 0 1e11
CB B 0 0.01pF
RC C 0 1e11
CC C 0 0.01pF
VS VSUP 0 DC 1
ENAND3 Ypp 0 VALUE={IF(V(A) > {vthresh} & V(B) >
+ {vthresh} & V(C) > {vthresh}, 0, 1)}
ROUTpp Ypp 0 1e11
XNSW1 OUTp Ypp 0 NSW_PS PARAMS: RONval={(tplh+1e-15)
+/(1e-12*0.693)} VTHval=0.5
XPSW1 OUTp Ypp VSUP PSW_PS PARAMS: RONval={(tphl+1e-15)
+/(1e-12*0.693)} VTHval=0.5
CDEL1 OUTp 0 1pF
ETHRESH Yp 0 VALUE={IF(V(OUTp) > 0.5, 1, 0)}
ROUTp Yp 0 1e11
XNSW2 OUTr Yp 0 NSW_PS PARAMS: RONval={(tf+1e-15)/
+(1e-12*2.3)} VTHval=0.5
XPSW2 OUTr Yp VSUP PSW_PS PARAMS: RONval={(tr+1e-15)/
+(1e-12*2.3)} VTHval=0.5
CDEL2 OUTr 0 1pF
EOUT OUTf 0 VALUE={V(OUTr)*({vhi} - {vlo})+{vlo}}
RDR OUTf Y  1000
RO Y 0 1e11
.ENDS NAND3_PS
*$
.SUBCKT DIDEAL_PS A C PARAMS: ron=1e-3 roff=1e9 
RA A 0 1e11
RC C 0 1e11
RAC A C 1e11
CAC A C 0.01pF ic=0
GD A B VALUE={LIMIT((0.01/{roff})*EXP((V(A,B)- 0.01)*{5}/0.026),40,-10u)}
RB B 0 1e9
RD B C {ron}
CC C 0 0.1pF 
.ENDS DIDEAL_PS
*$
.SUBCKT BUFFER_PS A Y PARAMS: vhi=1 vlo=0 vthresh=500e-3
+ tplh=1e-9 tphl=1e-9 tr=1e-9 tf=1e-9
RA A 0 1e11
CA A 0 0.01pF
VS VSUP 0 DC 1
EBUF1 Ypp 0 VALUE={IF(V(A) > ({vthresh}), 1, 0)}
ROUTpp Ypp 0 1e11
XNSW1 OUTp Ypp 0 NSW_PS PARAMS: RONval={(tplh+1e-15)
+/(1e-12*0.693)} VTHval=0.5
XPSW1 OUTp Ypp VSUP PSW_PS PARAMS: RONval={(tphl+1e-15)/
+(1e-12*0.693)} VTHval=0.5
CDEL1 OUTp 0 1pF
ETHRESH Yp 0 VALUE={IF(V(OUTp) > 0.5, 1, 0)}
ROUTp Yp 0 1e11
XNSW2 OUTr Yp 0 NSW_PS PARAMS: RONval={(tf+1e-15)
+/(1e-12*2.3)} VTHval=0.5
XPSW2 OUTr Yp VSUP PSW_PS PARAMS: RONval={(tr+1e-15)
+/(1e-12*2.3)} VTHval=0.5
CDEL2 OUTr 0 1pF
EOUT OUTf 0 VALUE={V(OUTr)*({vhi} - {vlo})+{vlo}}
RDR OUTf Y  1000
RO Y 0 1e11
.ENDS BUFFER_PS
*$
.SUBCKT INV_PS Y A PARAMS: vhi=1 vlo=0 vthresh=500e-3
+ tplh=1e-9 tphl=1e-9 tr=1e-9 tf=1e-9
RA A 0 1e11
CA A 0 0.01pF
VS VSUP 0 DC 1
EINV1 Ypp 0 VALUE={IF(V(A) > ({vthresh}), 0, 1)}
ROUTpp Ypp 0 1e11
XNSW1 OUTp Ypp 0 NSW_PS PARAMS: RONval={(tplh+1e-15)/
+(1e-12*0.693)} VTHval=0.5
XPSW1 OUTp Ypp VSUP PSW_PS PARAMS: RONval={(tphl+1e-15)/
+(1e-12*0.693)} VTHval=0.5
CDEL1 OUTp 0 1pF
ETHRESH Yp 0 VALUE={IF(V(OUTp) > 0.5, 1, 0)}
ROUTp Yp 0 1e11
XNSW2 OUTr Yp 0 NSW_PS PARAMS: RONval={(tf+1e-15)
+/(1e-12*2.3)} VTHval=0.5
XPSW2 OUTr Yp VSUP PSW_PS PARAMS: RONval={(tr+1e-15)/
+(1e-12*2.3)} VTHval=0.5
CDEL2 OUTr 0 1pF
EOUT OUTf 0 VALUE={V(OUTr)*({vhi} - {vlo})+{vlo}}
RDR OUTf Y  1000
RO Y 0 1e11
.ENDS INV_PS
*$
.SUBCKT OR4_PS Y A B C D PARAMS: vhi=1 vlo=0 vthresh=500e-3
+ tplh=1e-9 tphl=1e-9 tr=1e-9 tf=1e-9
RA A 0 1e11
CA A 0 0.01pF
RB B 0 1e11
CB B 0 0.01pF
RC C 0 1e11
CC C 0 0.01pF
RD D 0 1e11
CD D 0 0.01pF
VS VSUP 0 DC 1
EOR4 Ypp 0 VALUE={IF(V(A) > {vthresh} | V(B) > {vthresh}
+  | V(C) > {vthresh}  | V(D) > {vthresh}, 1, 0)}
ROUTpp Ypp 0 1e11
XNSW1 OUTp Ypp 0 NSW_PS PARAMS: RONval={(tplh+1e-15)
+/(1e-12*0.693)} VTHval=0.5
XPSW1 OUTp Ypp VSUP PSW_PS PARAMS: RONval={(tphl+1e-15)
+/(1e-12*0.693)} VTHval=0.5
CDEL1 OUTp 0 1pF
ETHRESH Yp 0 VALUE={IF(V(OUTp) > 0.5, 1, 0)}
ROUTp Yp 0 1e11
XNSW2 OUTr Yp 0 NSW_PS PARAMS: RONval={(tf+1e-15)/(1e-12*2.3)} VTHval=0.5
XPSW2 OUTr Yp VSUP PSW_PS PARAMS: RONval={(tr+1e-15)/(1e-12*2.3)} VTHval=0.5
CDEL2 OUTr 0 1pF
EOUT OUTf 0 VALUE={V(OUTr)*({vhi} - {vlo})+{vlo}}
RDR OUTf Y  1000
RO Y 0 1e11
.ENDS OR4_PS
*$
.SUBCKT COMPIDEAL_PS Y NEG POS PARAMS: td=1e-9 tt=1e-9
RP POS 0 1e11
CP POS 0 0.01pF
RN NEG 0 1e11
CN NEG 0 0.01pF
VS VSUP 0 DC 1
ECOUT Ypp 0 VALUE={IF (V(POS) > V(NEG), 1, 0)}
RYPP Ypp 0 1e11
XNSW1 OUTp Ypp 0 NSW_PS PARAMS: RONval={(td+1e-15)/(1e-12*0.693)} VTHval=0.5
XPSW1 OUTp Ypp VSUP PSW_PS PARAMS: RONval={(td+1e-15)
+/(1e-12*0.693)} VTHval=0.5
CDEL1 OUTp 0 1pF
ETHRESH Yp 0 VALUE={IF(V(OUTp) > 0.5, 1, 0)} 
ROUTp Yp 0 1e11
XNSW2 OUTr Yp 0 NSW_PS PARAMS: RONval={(tt+1e-15)/(1e-12*2.3)} VTHval=0.5
XPSW2 OUTr Yp VSUP PSW_PS PARAMS: RONval={(tt+1e-15)/(1e-12*2.3)} VTHval=0.5
CDEL2 OUTr 0 1pF
EOUT OUTf 0 VALUE={V(OUTr)}
RDR OUTf Y 1000
RO Y 0 1e11
.ENDS COMPIDEAL_PS
*$
.SUBCKT VCVSCLIP_PS YP YN POS NEG PARAMS: gain=1 vomax=1 vomin=-1
RP POS 0 1e11
CP POS 0 0.01pF
RN NEG 0 1e11
CN NEG 0 0.01pF
ROUTN YN 0 1e11
COUTN YN 0 0.01pF
EVCLP YP YN VALUE={LIMIT((V(POS)-V(NEG))*{gain},{vomax},{vomin})}
RO YP 0 1e11
.ENDS VCVSCLIP_PS
*$
.SUBCKT CCVS OUTP OUTN INP INN CTRP CTRN PARAMS: GAIN=1e7
ROUTP OUTP 0 1e11
ROUTN OUTN 0 1e11
RCTRLP INP 0 1e11
RCTRLN INN 0 1e11
VFLOW INP INN DC 0
H1 OUTP OUTN VALUE={IF(V(CTRP,CTRN)>0.5, V(INP,INN)*{GAIN}, 0)}
.ENDS CCVS
*$
.SUBCKT NAND2_PS Y A B PARAMS: vhi=1 vlo=0 vthresh=500e-3
+ tplh=1e-9 tphl=1e-9 tr=1e-9 tf=1e-9
RA A 0 1e11
CA A 0 0.01pF
RB B 0 1e11
CB B 0 0.01pF
VS VSUP 0 DC 1
ENAND2 Ypp 0 VALUE={IF(V(A) > {vthresh} & V(B) > {vthresh}, 0, 1)}
ROUTpp Ypp 0 1e11
XNSW1 OUTp Ypp 0 NSW_PS PARAMS: RONval={(tplh+1e-15)/
+(1e-12*0.693)} VTHval=0.5
XPSW1 OUTp Ypp VSUP PSW_PS PARAMS: RONval={(tphl+1e-15
+)/(1e-12*0.693)} VTHval=0.5
CDEL1 OUTp 0 1pF
ETHRESH Yp 0 VALUE={IF(V(OUTp) > 0.5, 1, 0)}
ROUTp Yp 0 1e11
XNSW2 OUTr Yp 0 NSW_PS PARAMS: RONval={(tf+1e-15)/(1e-12*2.3)} VTHval=0.5
XPSW2 OUTr Yp VSUP PSW_PS PARAMS: RONval={(tr+1e-15)/(1e-12*2.3)} VTHval=0.5
CDEL2 OUTr 0 1pF
EOUT OUTf 0 VALUE={V(OUTr)*({vhi} - {vlo})+{vlo}}
RDR OUTf Y  1000
RO Y 0 1e11
.ENDS NAND2_PS
*$
.SUBCKT NSW_PS D G S PARAMS: RONval=10k VTHval=0.7
+ VCHARval=0.01 CGval=0.01pF CDval=0.01pF 
RDDUM D 0 1e11
RSDUM S 0 1e11
RGDUM G 0 1e11
CG G D {CGval}
CD D S {CDval}
EEXP F1 0 VALUE={LIMIT(((V(G,S)-VTHval)/VCHARval),-80,80)} 
+/2+(-V(F1)**3)/6+(-V(F1)**4)/24))}
GOUT D S VALUE={V(D,S)/(RONval*(1+EXP(-LIMIT(((V(G,S)
+-VTHval)/VCHARval),-80,80))))}
.ENDS NSW_PS
*$
.SUBCKT PSW_PS D G S PARAMS: RONval=10k VTHval=0.7
+ VCHARval=0.01 CGval=0.01pF CDval=0.01pF 
RDDUM D 0 1e11
RSDUM S 0 1e11
RGDUM G 0 1e11
CG G D {CGval}
CD D S {CDval}
EEXP F1 0 VALUE={LIMIT(((V(S,G)-VTHval)/VCHARval),-80,80)} 
GOUT S D VALUE={V(S,D)/(RONval*(1+EXP(-LIMIT(((V(S,G)
+ -VTHval)/VCHARval),-80,80))))}
.ENDS PSW_PS
*$
.SUBCKT GAIN_MUL IN OUT  
+ PARAMs:  GAIN=1
EOUT OUT 0 VALUE { GAIN * V(IN)}
.ends GAIN_MUL
*$
.SUBCKT SRNANDLATCHSHP_BASIC S R Q QB
r1 R 0 1e11
r2 S 0 1e11
GQ 0 Qint VALUE = {IF(V(S) > .5,5,IF(V(R)>.5,-5, 0))}
CQint Qint 0 1n
RQint Qint 0 1000MEG
D_D10 Qint MY5 D_D1
V1 MY5 0 5
D_D11 0 Qint D_D1 
EQ Qqq 0 Qint 0 1
X3 Qqq Qqqd1 BUFFER_PS
RQq Qqqd1 Q 1
EQb Qbr 0 VALUE = {IF( V(Q) > .5, 0,1)}
RQb Qbr QB 1 
Cdummy1 Q 0 10p IC={1}
Cdummy2 QB 0 10p IC={0}
.MODEL D_D1 D( IS=1e-15 TT=10p Rs=0.05 N=.1  )
.ENDS SRNANDLATCHSHP_BASIC
*$
**Reset has higher priority in this latch
.SUBCKT SRLATCHRHP S R Q QB PARAMS: VDD=1 VSS=0 VTHRESH=0.5 
r1 R 0 1e11
r2 S 0 1e11
GQ 0 Qint VALUE = {IF(V(R) > {VTHRESH},-5,IF(V(S)>{VTHRESH},5, 0))}
CQint Qint 0 1n
RQint Qint 0 1000MEG
D_D10 Qint MY5 D_D1
V1 MY5 0 {VDD}
D_D11 MYVSS Qint D_D1
V2 MYVSS 0 {VSS} 
EQ Qqq 0 Qint 0 1
X3 Qqq Qqqd1 BUFFER_PS
RQq Qqqd1 Q 1
EQb Qbr 0 VALUE = {IF( V(Q) > {VTHRESH}, {VSS},{VDD})}
RQb Qbr QB 1 
Cdummy1 Q 0 1n 
Cdummy2 QB 0 1n
.IC V(Qint) {VSS}
.MODEL D_D1 D( IS=1e-15 TT=10p Rs=0.05 N=.1  )
.ENDS SRLATCHRHP
*$
.SUBCKT MONOPOS_PS in Q Qn PARAMS: PW=250u 
VS VSUP 0 DC 1
r1 Q 0 1e11
GIN VSUP YA VALUE={IF(V(IN)>0.5, V(VSUP)/1000K, 0)}
GDIS YA 0 VALUE={IF(V(IN)>0.5,0, V(YA)/1m)}
CIN YA 0 1n IC=0
RIN YA 0 1e11
EABM1 YTD 0 VALUE={IF(V(YA)> {PW*1000}, 1, 0)}
RYTD YTD 0 1e11
EXOR P 0 VALUE={IF(V(YTD) > 0.5 ^ V(IN) > .5, 1, 0)}
ROUTpp2 P 0 1e11
EAND1 Q1 0 VALUE={ IF(V(P)>0.5 & V(IN)>0.5, 1, 0)}
Ro1 Q1 Q 1m
Co1 Q 0 1p
ROUT2 Q 0 1e11
EAND2 Qn1 0 VALUE={ IF(V(Q)>0.5, 0, 1)}
Ro2 Qn1 Qn 1m
Co2 Qn 0 1p
ROUT4 Qn 0 1e11
.ENDS MONOPOS_PS
*$
