* PSpice Model Editor - Version 16.0.0.
*$
*TPS51225B
***************************************************************************
* (C) Copyright 2012 Texas Instruments Incorporated. All rights reserved. 
***************************************************************************
** This model is designed as an aid for customers of Texas Instruments.    
** TI and its licensors and suppliers make no warranties, either expressed 
** or implied, with respect to this model, including the warranties of     
** merchantability or fitness for a particular purpose. The model is       
** provided solely on an "as is" basis. The entire risk as to its quality  
** and performance is with the customer.                                    
***************************************************************************
* 
* Released by: WEBENCH Design Center, Texas Instruments Inc.
* Part: TPS51225B
* Date: 03FEB2012
* Model Type: Transient
* Simulator: PSpice
* Simulator Version: 16.0.0.p001
* EVM Order Number: TPS51225EVM-REV 0.0
* Datasheet: SLUSAV0 –JANUARY 2012
*
***************************************************************************
*
* Updates: 
* Final 1.00 
* Release to Web.
*
***************************************************************************
.SUBCKT TPS51225B_TRANS VREG3 VREG5 VBST1 VBST2 VCLK LL1 LL2 CS1 CS2 PGOOD
+ VIN VO1 VFB1 VFB2 DRVH1 DRVH2 DRVL1 DRVL2 EN1 EN2 GND PARAMS: MODE=0
C_C11         GND VREF  1u  
X_U4_U14         U4_N13787296 V5FILT d_d1
E_U4_ABM4         SS1 0 VALUE { if(V(U4_N13787296)>2, 2,V(U4_N13787296))    }
E_U4_ABM6         ENUVPG1 0 VALUE { if(V(U4_N13787296)>2.5, 1,0)    }
R_U4_R18         VREG5 V5FILT  3.32  
C_U4_C11         GND V5FILT  1u IC=0 
E_U4_ABM7         ENUVPG2 0 VALUE { if(V(U4_N15130899)>2.5, 1,0)    }
G_U4_ABMII1         V5FILT U4_N13787296 VALUE { if(V(ENCIRD1) >0.5, {2.5u +
+  MODE* 7.5u},0)    }
E_U4_ABM5         SS2 0 VALUE { if(V(U4_N15130899)>2, 2,V(U4_N15130899))    }
E_U4_ABM2         SSEND1 0 VALUE { if(V(U4_N13787296)>1.95, 1,0)    }
E_U4_ABM3         SSEND2 0 VALUE { if(V(U4_N15130899)>2, 1.95,0)    }
X_U4_U15          VREG5 V5INOK COMP_HYS2 PARAMS:  TH=4.2 HYS=.3
R_U4_R23         GND SSEND2  1Meg  
E_U4_ABM53         U4_ENABLE1 0 VALUE { if( V(V5INOK)>0.5 &  
+ V(EN1)>0.5,1,0)   }
R_U4_R22         GND SSEND1  1Meg  
X_U4_U10         U4_ENABLE2 ENCIRD2 DELAY PARAMS: T=130000
C_U4_C3         GND U4_N13787296  1n IC=0 
G_U4_ABMII2         V5FILT U4_N15130899 VALUE { if(V(ENCIRD2) >0.5, {2.5u +
+  MODE* 7.5u},0)    }
X_U4_U219         ENCIRD1 U4_N137873121 INVERTER
X_U4_U8         U4_ENABLE1 ENCIRD1 DELAY PARAMS: T=130000
C_U4_C4         GND U4_N15130899  1n IC=0 
X_U4_U220         ENCIRD2 U4_N151309131 INVERTER
X_U4_S11    U4_N137873121 GND U4_N13787296 GND SS_SEL_U4_S11 
E_U4_ABM62         U4_ENABLE2 0 VALUE { if( V(V5INOK)>0.5 &  
+ V(EN2)>0.5,1,0)   }
X_U4_U16         U4_N15130899 V5FILT d_d1
X_U4_S12    U4_N151309131 GND U4_N15130899 GND SS_SEL_U4_S12 
X_U1_U291         U1_N15861629 U1_PRESET U1_N16119786 AND
X_U1_U298         U1_ZC SSEND1 U1_N16044967 AND
X_U1_U6_S15    U1_U6_DQOS GND U1_U6_TON U1_U6_N16087537 TON1_U1_U6_S15 
C_U1_U6_C6         U1_U6_TON U1_U6_N16087537  6p IC=0 TC=0,0 
R_U1_U6_R36         U1_U6_N16087621 U1_U6_TON  460k TC=0,0 
R_U1_U6_R38         GND U1_U6_N16087537  4k TC=0,0 
R_U1_U6_R33         U1_U6_VOS U1_U6_N16087427  600k TC=0,0 
X_U1_U6_S14    U1_U6_DQOS GND U1_U6_N16087537 GND TON1_U1_U6_S14 
R_U1_U6_R37         GND U1_U6_N16087621  240k TC=0,0 
E_U1_U6_E10         U1_U6_DQOS GND U1_HIREADY GND 1
X_U1_U6_U194         U1_U6_N16087607 U1_U6_TRES BUFFER_PS PARAMS: VHI=1 VLO=0
+  VTHRESH=500E-3 TPLH=70n TPHL=70n TR=1E-9 TF=1E-9
X_U1_U6_U216         U1_U6_TRES ENCIRD1 U1_U6_N16087685 AND
E_U1_U6_E8         U1_U6_N16087359 GND LL1 GND 1
X_U1_U6_U217         U1_U6_DQOS U1_U6_N16087685 U1_TOS OR
R_U1_U6_R34         GND U1_U6_VOS  400k TC=0,0 
E_U1_U6_E9         U1_U6_N16087427 GND VO1 GND 1
E_U1_U6_ABM20         U1_U6_N16087607 0 VALUE { if( V(U1_U6_TON)   
+ <V(U1_U6_VOS),1,0)   }
C_U1_U6_C5         GND U1_U6_VOS  1p IC=0 TC=0,0 
R_U1_U6_R35         U1_U6_N16087621 U1_U6_N16087359  240k TC=0,0 
X_U1_U293         U1_EN_VIN_TONEXT LOWVIN N16044903 AND
X_U1_S7    U1_DRL2 GND DRVL1 GND DCAP_ch1_U1_S7 
X_U1_U250         U1_DRVH_EVENT U1_N16115777 INVERTER
X_U1_U284         U1_LOWDRIVE U1_N8028504 U1_N8031494 AND
X_U1_U296         U1_BLNKM U1_TBLNKB U1_N8031784 NAND2_PS PARAMS: VHI=1 VLO=0
+  VTHRESH=500E-3 TPLH=1E-9 TPHL=1E-9 TR=1E-9 TF=1E-9
X_U1_U289         U1_DRL2 U1_N8028504 INVERTER
X_U1_U263         U1_SSENDSET ENCIRD1 ENCIRD1 U1_N8024778 NAND3_PS PARAMS:
+  VHI=1 VLO=0 VTHRESH=500E-3 TPLH=1E-9 TPHL=1E-9 TR=1E-9 TF=1E-9
E_U1_ABM3         U1_DRVH_EVENT 0 VALUE { if(V(DRVH1)>5,1,0)    }
X_U1_U279         U1_HIDRIVE U1_N80260841 INVERTER
X_U1_U270         U1_N8029732 U1_N80253622 U1_N8025810 NOR2
X_U1_U265         U1_ON U1_ONSET U1_ONSET U1_N8024982 NAND3_PS PARAMS: VHI=1
+  VLO=0 VTHRESH=500E-3 TPLH=1E-9 TPHL=1E-9 TR=1E-9 TF=1E-9
E_U1_U4_ABM8         U1_U4_MODECHECK 0 VALUE { if( V(U1_PWMMODE)>0.5,  
+ -V(U1_U4_OCLTHR),  
+ V(GND) )  }
X_U1_U4_U292         U1_OCM U1_U4_N15985850 U1_TBLNKB ENCIRD1 NAND3_PS PARAMS:
+  VHI=1 VLO=0 VTHRESH=500E-3 TPLH=1E-9 TPHL=1E-9 TR=1E-9 TF=1E-9
C_U1_U4_C14         U1_U4_LLO GND  10p  TC=0,0 
X_U1_U4_U259         U1_U4_N15986326 U1_U4_OCLDIS U1_U4_OCLDIS U1_OCL NAND3_PS
+  PARAMS: VHI=1 VLO=0 VTHRESH=500E-3 TPLH=1E-9 TPHL=1E-9 TR=1E-9 TF=1E-9
X_U1_U4_U290         U1_U4_N15985944 U1_PWMMODE U1_ZC OR
X_U1_U4_U260         U1_OCL U1_U4_N15986326 U1_TBLNKB ENCIRD1 NAND3_PS PARAMS:
+  VHI=1 VLO=0 VTHRESH=500E-3 TPLH=1E-9 TPHL=1E-9 TR=1E-9 TF=1E-9
X_U1_U4_U262         U1_U4_N15985944 U1_U4_N15986788 U1_TBLNKB ENCIRD1 NAND3_PS
+  PARAMS: VHI=1 VLO=0 VTHRESH=500E-3 TPLH=1E-9 TPHL=1E-9 TR=1E-9 TF=1E-9
R_U1_U4_R9         U1_U4_LLO U1_U4_N15986742  100  
X_U1_U4_U238         ENCIRD1 U1_U4_N15985872 U1_U4_N15986244 AND
X_U1_U4_U242         U1_BLNKM U1_U4_N15986244 U1_U4_OCLDIS OR
E_U1_U4_ABM16         U1_U4_N15986114 0 VALUE { if( V(U1_U4_OCLTHR) * 0.5  
+ >V(U1_U4_LLO) ,1,0)   }
X_U1_U4_U240         U1_U4_NCL U1_U4_N15986250 INVERTER
X_U1_U4_U253         U1_BLNKM U1_U4_N15986200 U1_U4_OCMDIS OR
X_U1_U4_U243         U1_BLNKM U1_U4_N15986250 U1_U4_N15986654 OR
X_U1_U4_U14         CS1 V5FILT d_d1
X_U1_U4_U261         U1_U4_N15986788 U1_U4_N15986654 U1_U4_N15986654
+  U1_U4_N15985944 NAND3_PS PARAMS: VHI=1 VLO=0 VTHRESH=500E-3 TPLH=1E-9
+  TPHL=1E-9 TR=1E-9 TF=1E-9
X_U1_U4_U254         ENCIRD1 U1_U4_N15986114 U1_U4_N15986200 AND
E_U1_U4_ABM12         U1_U4_NCL 0 VALUE { if( V(U1_U4_LLO)  
+ >V(U1_U4_N15986256) ,1,0)   }
E_U1_U4_ABM11         U1_U4_N15985872 0 VALUE { if( V(U1_U4_OCLTHR) * {(1+
+  MODE) }  
+ >V(U1_U4_LLO) ,1,0)   }
E_U1_U4_E1         GND U1_U4_OCLTHR GND CS1 -.125
V_U1_U4_V87         U1_U4_N15986256 U1_U4_MODECHECK -5m
X_U1_U4_U273         U1_U4_N15985850 U1_U4_OCMDIS U1_U4_OCMDIS U1_OCM NAND3_PS
+  PARAMS: VHI=1 VLO=0 VTHRESH=500E-3 TPLH=1E-9 TPHL=1E-9 TR=1E-9 TF=1E-9
G_U1_U4_ABMII1         V5FILT CS1 VALUE { if(V(ENCIRD1) >0.5,10u,0)    }
E_U1_U4_ABM14         U1_U4_N15986742 0 VALUE { if( V(DRVL1)>2.5 & V(LL1) <0.5,
+   
+ V(LL1),  
+ V(GND) )  }
X_U1_U271         U1_DRVHPREBIAS U1_N80256102 U1_ENLOW1 NOR2
X_U1_U244         U1_N8030134 U1_N8031174 INVERTER
X_U1_U268         U1_N8031166 ENCIRD1 U1_N8031174 U1_N8031250 NAND3_PS PARAMS:
+  VHI=1 VLO=0 VTHRESH=500E-3 TPLH=1E-9 TPHL=1E-9 TR=1E-9 TF=1E-9
E_U1_U5_ABM10         U1_U5_LUPB 0 VALUE { if( V(U1_U5_REFEFF)  
+ >V(VFB1) ,1,0)   }
R_U1_U5_R27         GND U1_U5_QRMP  1e8 TC=0,0 
C_U1_U5_C10         GND U1_U5_RMP  4p IC=0 TC=0,0 
R_U1_U5_R25         GND U1_U5_RMP  1e8 TC=0,0 
X_U1_U5_U239         U1_U5_LUPB U1_LOOPB INVERTER
E_U1_U5_ABM15         U1_U5_REFEFF 0 VALUE { ( V(U1_U5_RAMP)  
+ + V(SS1) )   }
X_U1_U5_S12    U1_U5_QRMP GND U1_U5_RMP GND PWM_U1_U5_S12 
X_U1_U5_U302         U1_DRVH_EVENT U1_U5_QRMP U1_U5_N152306122 MONOPOS_PS
+  PARAMS: PW=2n
G_U1_U5_ABMII4         V5FILT U1_U5_RMP VALUE { if(V(ENCIRD1) > 0.5, 12n , 0)  
+   }
E_U1_U5_ABM46         U1_U5_RAMP 0 VALUE { if(V(ENCIRD1)>0.5,  
+ LIMIT((V(U1_U5_RMP)-0.01),-10m,10m),0)   }
R_U1_U5_R26         GND U1_U5_N152306122  1e8 TC=0,0 
X_U1_U191         U1_N8032008 U1_N8031306 BUFFER_PS PARAMS: VHI=1 VLO=0
+  VTHRESH=500E-3 TPLH=2E-9 TPHL=20n TR=1E-9 TF=1E-9
X_U1_U276         U1_OVP U1_N16119786 U1_LOWDRIVE OR
X_U1_U282         U1_HIDRIVE U1_N8030314 U1_N8031562 AND
X_U1_U281         U1_DRVH_EVENT U1_N8031306 U1_DRVHPREBIAS AND
X_U1_U274         ENCIRD1 U1_DRVOFF INVERTER
X_U1_S8    U1_DRL1 GND VREG5 DRVL1 DCAP_ch1_U1_S8 
X_U1_U288         U1_DRL1 U1_N8029506 INVERTER
X_U1_U295         U1_N8024792 U1_DRVHPREBIAS U1_HIDRIVE NAND2_PS PARAMS: VHI=1
+  VLO=0 VTHRESH=500E-3 TPLH=1E-9 TPHL=1E-9 TR=1E-9 TF=1E-9
X_U1_U267         U1_N8031250 U1_N8031166 U1_TOS U1_TOS NAND3_PS PARAMS: VHI=1
+  VLO=0 VTHRESH=500E-3 TPLH=1E-9 TPHL=1E-9 TR=1E-9 TF=1E-9
X_U1_U17         VREG5 VBST1 d_d2
X_U1_U212         U1_N80290140 U1_DRH2 BUFFER_PS PARAMS: VHI=1 VLO=0
+  VTHRESH=500E-3 TPLH=10E-9 TPHL=2E-9 TR=1E-9 TF=1E-9
X_U1_U277         U1_ZC U1_N8032134 U1_N8031784 OR
X_U1_U247         U1_LOWREADY U1_N80253622 INVERTER
X_U1_U1_U582         U1_U1_N15418841 U1_ON U1_U1_OOAPULSE U1_U1_N15423623
+  SRNANDLATCHSHP_BASIC
X_U1_U1_S13    U1_U1_OOACHECK GND U1_U1_OOATIME GND OOA_U1_U1_S13 
R_U1_U1_R3         GND U1_U1_OOA  1Meg TC=0,0 
G_U1_U1_ABMII2         V5FILT U1_U1_OOATIME VALUE { if(V(U1_U1_OOACHECK)>0.5,
+  0.1u,0)    }
E_U1_U1_ABM54         U1_U1_N15418841 0 VALUE { if(V(U1_U1_OOATIME)>1,1,0)    }
E_U1_U1_ABM47         U1_U1_N15419039 0 VALUE { if(V(U1_U1_N15418531) < 0.5 &  
+ V(U1_U1_OOA) >0.5,1,0)   }
X_U1_U1_U581         U1_U1_N15418563 U1_U1_N15418531 U1_U1_N15418569 MONOPOS_PS
+  PARAMS: PW=300n
X_U1_U1_U250         U1_U1_N15418817 U1_U1_N15418825 U1_U1_OOACHECK AND
X_U1_U1_U252         U1_U1_N15419039 ENUVPG1 U1_U1_N15418817 AND
R_U1_U1_R48         GND U1_U1_N15418569  1e8  
R_U1_U1_R5         GND U1_U1_N15423623  1Meg TC=0,0 
E_U1_U1_ABM42         U1_U1_OOA 0 VALUE { if(V(VREG3) >1.5 & V(VREG3) <5.5 &  
+ V(V5INOK) >0.5,1,0)   }
X_U1_U1_U291         U1_U1_N15418531 U1_U1_OOARES U1_U1_N15418563 OR
E_U1_U1_ABM41         U1_PWMMODE 0 VALUE { if(V(U1_U1_OOAPULSE) >0.5 |  
+ V(U1_U1_N15684268) >0.5,1,0)   }
C_U1_U1_C13         GND U1_U1_OOATIME  4p IC=0 TC=0,0 
R_U1_U1_R28         GND U1_U1_OOATIME  1e8 TC=0,0 
E_U1_U1_ABM45         U1_U1_N15418825 0 VALUE { if(V(U1_HIDRIVE) < 0.5 &  
+ V(U1_LOWDRIVE) <0.5,1,0)   }
E_U1_U1_ABM43         U1_U1_N15684268 0 VALUE { if(V(VREG3) <0.7 &  
+ V(V5INOK) >0.5,1,0)   }
R_U1_U1_R6         GND U1_PWMMODE  1Meg TC=0,0 
E_U1_U1_ABM55         U1_U1_OOARES 0 VALUE { if(V(U1_U1_OOATIME)>1.05,1,0)    }
X_U1_U280         U1_LOWDRIVE U1_N80252782 INVERTER
V_U1_V91         U1_V5 GND 5
X_U1_S5    U1_DRH1 GND VBST1 DRVH1 DCAP_ch1_U1_S5 
X_U1_U294         U1_HIREADY U1_ON U1_N8025810 NAND2_PS PARAMS: VHI=1 VLO=0
+  VTHRESH=500E-3 TPLH=1E-9 TPHL=1E-9 TR=1E-9 TF=1E-9
X_U1_U269         U1_LOWREADY U1_ENLOW1 U1_ONB U1_ZC NAND3_PS PARAMS: VHI=1
+  VLO=0 VTHRESH=500E-3 TPLH=1E-9 TPHL=1E-9 TR=1E-9 TF=1E-9
X_U1_U273         U1_N16115845 U1_PRESET ENCIRD1 ENCIRD1 NAND3_PS PARAMS: VHI=1
+  VLO=0 VTHRESH=500E-3 TPLH=1E-9 TPHL=1E-9 TR=1E-9 TF=1E-9
X_U1_U283         U1_N8029314 U1_N80260841 U1_N80290140 AND
X_U1_U142         U1_ONSET U1_OVPX U1_LOOPB U1_OCL U1_N8031250 OR4_PS PARAMS:
+  VHI=1 VLO=0 VTHRESH=500E-3 TPLH=1E-9 TPHL=1E-9 TR=1E-9 TF=1E-9
X_U1_S6    U1_DRH2 GND DRVH1 LL1 DCAP_ch1_U1_S6 
X_U1_U290         U1_PRESET U1_N16115777 U1_N16115777 U1_N16115845 NAND3_PS
+  PARAMS: VHI=1 VLO=0 VTHRESH=500E-3 TPLH=1E-9 TPHL=1E-9 TR=1E-9 TF=1E-9
X_U1_U264         U1_N8024778 U1_SSENDSET U1_N8024792 SSEND1 NAND3_PS PARAMS:
+  VHI=1 VLO=0 VTHRESH=500E-3 TPLH=1E-9 TPHL=1E-9 TR=1E-9 TF=1E-9
X_U1_U286         U1_DRH1 U1_N8029314 INVERTER
X_U1_U188         U1_N8031250 U1_N8028358 BUFFER_PS PARAMS: VHI=1 VLO=0
+  VTHRESH=500E-3 TPLH=2E-9 TPHL=10E-9 TR=1E-9 TF=1E-9
X_U1_U266         U1_N8024982 U1_ON U1_TOS ENCIRD1 NAND3_PS PARAMS: VHI=1 VLO=0
+  VTHRESH=500E-3 TPLH=1E-9 TPHL=1E-9 TR=1E-9 TF=1E-9
X_U1_U255         U1_N16044967 U1_N16045063 N16060913 OR
E_U1_ABM58         U1_OVPX 0 VALUE { if(V(VO1)>5.9,1,0)    }
E_U1_U2_ABM51         U1_U2_DISCH 0 VALUE { if( V(U1_OVP)>0.5 |  
+ V(U1_UVP) >0.5 |  
+ V(ENCIRD1) <0.5,1,0)  }
E_U1_U2_ABM32         U1_U2_UVS 0 VALUE { if( V(ENUVPG1)> 0.5 &  
+ V(U1_U2_UVD)>0.5,1,0)   }
R_U1_U2_R12         GND U1_U2_N15398447  1Meg  
E_U1_U2_ABM5         U1_U2_P675VREF 0 VALUE { V(U1_U2_V2P0) * 0.75    }
E_U1_U2_ABM33         U1_U2_OVS 0 VALUE { if( V(ENCIRD1)> 0.5 &  
+ V(U1_U2_OVD)>0.5,1,0)   }
V_U1_U2_V89         U1_U2_V2P0 GND 2
E_U1_U2_ABM6         U1_U2_1P125VREF 0 VALUE { V(U1_U2_V2P0) * 1.125    }
X_U1_U2_U48         U1_U2_UVS U1_U2_N15398645 U1_U2_UVLATCH U1_U2_N153980293
+  SRNANDLATCHSHP_BASIC
E_U1_U2_ABM21         U1_U2_HYSTVAL 0 VALUE { V(U1_U2_V2P0) * 0.1    }
R_U1_U2_R14         GND U1_U2_N15398453  1Meg  
X_U1_U2_U50         U1_U2_OVS U1_U2_N15398453 U1_U2_OVLATCH U1_U2_N15398447
+  srnandlatchshp_basic
X_U1_U2_U26         U1_U2_UV U1_U2_UVD DELAY PARAMS: T=32000
E_U1_U2_ABM34         U1_UVP 0 VALUE { if( V(U1_U2_UVLATCH)> 0.5 &  
+ V(ENUVPG1)>0.5,1,0)   }
E_U1_U2_ABM35         U1_OVP 0 VALUE { if( V(U1_U2_OVLATCH)> 0.5 &  
+ V(ENCIRD1)>0.5,1,0)   }
X_U1_U2_S2    U1_U2_DISCH GND VO1 GND UVOVP_U1_U2_S2 
X_U1_U2_U13          U1_U2_P675VREF VFB1 U1_U2_HYSTVAL U1_U2_UV COMP_HYS
R_U1_U2_R11         GND U1_U2_N153980293  1Meg  
X_U1_U2_U23          VFB1 U1_U2_1P125VREF U1_U2_HYSTVAL U1_U2_OV COMP_HYS
R_U1_U2_R13         GND U1_U2_N15398645  1Meg  
X_U1_U2_U35         U1_U2_OV U1_U2_OVD DELAY PARAMS: T=5000
X_U1_U245         U1_N8029732 U1_N8032134 INVERTER
X_U1_U287         U1_DRH2 U1_N8030314 INVERTER
X_U1_U192         DRVL1 U1_N8029732 BUFFER_PS PARAMS: VHI=1 VLO=0 VTHRESH=2.5
+  TPLH=2E-9 TPHL=2E-9 TR=1E-9 TF=1E-9
X_U1_U256         U1_EN_VIN_TONEXT VLOWVIN U1_N16045063 AND
X_U1_U249         U1_ON U1_ONB INVERTER
X_U1_U214         U1_N15641500 U1_DRL2 BUFFER_PS PARAMS: VHI=1 VLO=0
+  VTHRESH=500E-3 TPLH=10E-9 TPHL=2E-9 TR=1E-9 TF=1E-9
X_U1_U275         U1_DRVOFF U1_OVP U1_HIREADY U1_UVP U1_HIDRIVE NOR4
V_U1_V90         U1_EN_VIN_TONEXT GND 0
X_U1_U285         U1_N8029506 U1_N80252782 U1_N15641500 AND
R_U1_U3_R23         GND PGOOD1  1e6  
E_U1_U3_ABM59         U1_U3_HIGH_C 0 VALUE { if(V(VFB1)<2.15,1,0)    }
E_U1_U3_ABM60         U1_U3_LOW_C 0 VALUE { if(V(VFB1)>1.85,1,0)    }
E_U1_U3_ABM13         PGOOD1 0 VALUE { if( V(U1_U3_HIGH_C)>0.5  
+ & V(U1_U3_LOW_C)>0.5   
+ & V(ENUVPG1)>0.5, 1, 0 )  }
X_U1_U189         U1_N8030134 U1_LOWREADY INV_PS PARAMS: VHI=1 VLO=0
+  VTHRESH=500E-3 TPLH=260E-9 TPHL=10E-9 TR=1E-9 TF=1E-9
X_U1_U213         U1_N8031562 U1_DRH1 BUFFER_PS PARAMS: VHI=1 VLO=0
+  VTHRESH=500E-3 TPLH=10E-9 TPHL=2E-9 TR=1E-9 TF=1E-9
X_U1_U272         U1_LOWREADY U1_SSENDSET U1_UVP U1_N15861629 NOR3
X_U1_U297         U1_OCM N16044975 INVERTER
X_U1_U246         U1_N8028358 U1_TBLNKB INVERTER
X_U1_U215         U1_N8031494 U1_DRL1 BUFFER_PS PARAMS: VHI=1 VLO=0
+  VTHRESH=500E-3 TPLH=10E-9 TPHL=2E-9 TR=1E-9 TF=1E-9
X_U1_U278         U1_HIREADY U1_N8032008 INVERTER
X_U1_U248         U1_HIREADY U1_N80256102 INVERTER
V_V7         N15159302 GND  
+PWL 0 0 .01m 0 .011m 5 
X_S1    PGEN GND PGOOD GND TPS51225B_TRANS_S1 
X_U2_U17         VREG5 VBST2 d_d2
X_U2_U249         U2_ON U2_ONB INVERTER
X_U2_U296         U2_BLNKM U2_TBLNKB U2_N8031784 NAND2_PS PARAMS: VHI=1 VLO=0
+  VTHRESH=500E-3 TPLH=1E-9 TPHL=1E-9 TR=1E-9 TF=1E-9
X_U2_U189         U2_N8030134 U2_LOWREADY INV_PS PARAMS: VHI=1 VLO=0
+  VTHRESH=500E-3 TPLH=260E-9 TPHL=10E-9 TR=1E-9 TF=1E-9
X_U2_U268         U2_N8031166 ENCIRD2 U2_N8031174 U2_N8028460 NAND3_PS PARAMS:
+  VHI=1 VLO=0 VTHRESH=500E-3 TPLH=1E-9 TPHL=1E-9 TR=1E-9 TF=1E-9
X_U2_U290         U2_PRESET U2_N16091848 U2_N16091848 U2_N16091840 NAND3_PS
+  PARAMS: VHI=1 VLO=0 VTHRESH=500E-3 TPLH=1E-9 TPHL=1E-9 TR=1E-9 TF=1E-9
X_U2_S6    U2_DRH2 GND DRVH2 LL2 DCAP_ch2_U2_S6 
X_U2_U188         U2_N8028460 U2_N8028358 BUFFER_PS PARAMS: VHI=1 VLO=0
+  VTHRESH=500E-3 TPLH=2E-9 TPHL=10E-9 TR=1E-9 TF=1E-9
X_U2_U289         U2_DRL2 U2_N8028504 INVERTER
X_U2_U294         U2_HIREADY U2_ON U2_N8025810 NAND2_PS PARAMS: VHI=1 VLO=0
+  VTHRESH=500E-3 TPLH=1E-9 TPHL=1E-9 TR=1E-9 TF=1E-9
E_U2_U2_ABM51         U2_U2_DISCH 0 VALUE { if( V(U2_OVP)>0.5 |  
+ V(U2_UVP) >0.5 |  
+ V(ENCIRD2) <0.5,1,0)  }
E_U2_U2_ABM32         U2_U2_UVS 0 VALUE { if( V(ENUVPG2)> 0.5 &  
+ V(U2_U2_UVD)>0.5,1,0)   }
R_U2_U2_R12         GND U2_U2_N15398447  1Meg  
E_U2_U2_ABM5         U2_U2_P675VREF 0 VALUE { V(U2_U2_V2P0) * 0.75    }
E_U2_U2_ABM33         U2_U2_OVS 0 VALUE { if( V(ENCIRD2)> 0.5 &  
+ V(U2_U2_OVD)>0.5,1,0)   }
V_U2_U2_V89         U2_U2_V2P0 GND 2
E_U2_U2_ABM6         U2_U2_1P125VREF 0 VALUE { V(U2_U2_V2P0) * 1.125    }
X_U2_U2_U48         U2_U2_UVS U2_U2_N15398645 U2_U2_UVLATCH U2_U2_N153980293
+  SRNANDLATCHSHP_BASIC
E_U2_U2_ABM21         U2_U2_HYSTVAL 0 VALUE { V(U2_U2_V2P0) * 0.1    }
R_U2_U2_R14         GND U2_U2_N15398453  1Meg  
X_U2_U2_U50         U2_U2_OVS U2_U2_N15398453 U2_U2_OVLATCH U2_U2_N15398447
+  srnandlatchshp_basic
X_U2_U2_U26         U2_U2_UV U2_U2_UVD DELAY PARAMS: T=32000
E_U2_U2_ABM34         U2_UVP 0 VALUE { if( V(U2_U2_UVLATCH)> 0.5 &  
+ V(ENUVPG2)>0.5,1,0)   }
E_U2_U2_ABM35         U2_OVP 0 VALUE { if( V(U2_U2_OVLATCH)> 0.5 &  
+ V(ENCIRD2)>0.5,1,0)   }
X_U2_U2_S2    U2_U2_DISCH GND LL2 GND UVOVP_U2_U2_S2 
X_U2_U2_U13          U2_U2_P675VREF VFB2 U2_U2_HYSTVAL U2_U2_UV COMP_HYS
R_U2_U2_R11         GND U2_U2_N153980293  1Meg  
X_U2_U2_U23          VFB2 U2_U2_1P125VREF U2_U2_HYSTVAL U2_U2_OV COMP_HYS
R_U2_U2_R13         GND U2_U2_N15398645  1Meg  
X_U2_U2_U35         U2_U2_OV U2_U2_OVD DELAY PARAMS: T=5000
E_U2_ABM3         U2_DRVH_EVENT 0 VALUE { if(V(DRVH2)>5,1,0)    }
X_U2_U271         U2_DRVHPREBIAS U2_N156432041 U2_ENLOW1 NOR2
X_U2_U293         U2_EN_VIN_TONEXT LOWVIN N15512678 AND
V_U2_V90         U2_EN_VIN_TONEXT GND 0
X_U2_S5    U2_DRH1 GND VBST2 DRVH2 DCAP_ch2_U2_S5 
X_U2_U275         U2_DRVOFF U2_OVP U2_HIREADY U2_UVP U2_HIDRIVE NOR4
X_U2_U278         U2_HIREADY U2_N8032008 INVERTER
X_U2_S8    U2_DRL1 GND VREG5 DRVL2 DCAP_ch2_U2_S8 
X_U2_U256         U2_EN_VIN_TONEXT VLOWVIN U2_N15506109 AND
X_U2_U288         U2_DRL1 U2_N8029506 INVERTER
X_U2_U255         U2_N15579419 U2_N15506109 N16073455 OR
X_U2_U270         U2_N8029732 U2_N156421802 U2_N8025810 NOR2
X_U2_U295         U2_N8024792 U2_DRVHPREBIAS U2_HIDRIVE NAND2_PS PARAMS: VHI=1
+  VLO=0 VTHRESH=500E-3 TPLH=1E-9 TPHL=1E-9 TR=1E-9 TF=1E-9
X_U2_U284         U2_LOWDRIVE U2_N8028504 U2_N8031494 AND
X_U2_U280         U2_LOWDRIVE U2_N156423442 INVERTER
X_U2_U276         U2_OVP U2_N16105349 U2_LOWDRIVE OR
X_U2_U277         U2_ZC U2_N156419582 U2_N8031784 OR
X_U2_U1_U582         U2_U1_N15418841 U2_ON U2_U1_OOAPULSE U2_U1_N15423623
+  SRNANDLATCHSHP_BASIC
X_U2_U1_S13    U2_U1_OOACHECK GND U2_U1_OOATIME GND OOA_U2_U1_S13 
R_U2_U1_R3         GND U2_U1_OOA  1Meg TC=0,0 
G_U2_U1_ABMII2         V5FILT U2_U1_OOATIME VALUE { if(V(U2_U1_OOACHECK)>0.5,
+  0.1u,0)    }
E_U2_U1_ABM54         U2_U1_N15418841 0 VALUE { if(V(U2_U1_OOATIME)>1,1,0)    }
E_U2_U1_ABM47         U2_U1_N15419039 0 VALUE { if(V(U2_U1_N15418531) < 0.5 &  
+ V(U2_U1_OOA) >0.5,1,0)   }
X_U2_U1_U581         U2_U1_N15418563 U2_U1_N15418531 U2_U1_N15418569 MONOPOS_PS
+  PARAMS: PW=300n
X_U2_U1_U250         U2_U1_N15418817 U2_U1_N15418825 U2_U1_OOACHECK AND
X_U2_U1_U252         U2_U1_N15419039 ENUVPG2 U2_U1_N15418817 AND
R_U2_U1_R48         GND U2_U1_N15418569  1e8  
R_U2_U1_R5         GND U2_U1_N15423623  1Meg TC=0,0 
E_U2_U1_ABM42         U2_U1_OOA 0 VALUE { if(V(VREG3) >1.5 & V(VREG3) <5.5 &  
+ V(V5INOK) >0.5,1,0)   }
X_U2_U1_U291         U2_U1_N15418531 U2_U1_OOARES U2_U1_N15418563 OR
E_U2_U1_ABM41         U2_PWMMODE 0 VALUE { if(V(U2_U1_OOAPULSE) >0.5 |  
+ V(U2_U1_N15684268) >0.5,1,0)   }
C_U2_U1_C13         GND U2_U1_OOATIME  4p IC=0 TC=0,0 
R_U2_U1_R28         GND U2_U1_OOATIME  1e8 TC=0,0 
E_U2_U1_ABM45         U2_U1_N15418825 0 VALUE { if(V(U2_HIDRIVE) < 0.5 &  
+ V(U2_LOWDRIVE) <0.5,1,0)   }
E_U2_U1_ABM43         U2_U1_N15684268 0 VALUE { if(V(VREG3) <0.7 &  
+ V(V5INOK) >0.5,1,0)   }
R_U2_U1_R6         GND U2_PWMMODE  1Meg TC=0,0 
E_U2_U1_ABM55         U2_U1_OOARES 0 VALUE { if(V(U2_U1_OOATIME)>1.05,1,0)    }
X_U2_U246         U2_N8028358 U2_TBLNKB INVERTER
X_U2_U283         U2_N8029314 U2_N156442461 U2_N156443741 AND
X_U2_U291         U2_N16105347 U2_PRESET U2_N16105349 AND
E_U2_ABM58         U2_OVPX 0 VALUE { if(V(U2_LLAVG)>5.9,1,0)    }
X_U2_U244         U2_N8030134 U2_N8031174 INVERTER
X_U2_U214         U2_N15641500 U2_DRL2 BUFFER_PS PARAMS: VHI=1 VLO=0
+  VTHRESH=500E-3 TPLH=10E-9 TPHL=2E-9 TR=1E-9 TF=1E-9
X_U2_U265         U2_ON U2_ONSET U2_ONSET U2_N8024982 NAND3_PS PARAMS: VHI=1
+  VLO=0 VTHRESH=500E-3 TPLH=1E-9 TPHL=1E-9 TR=1E-9 TF=1E-9
X_U2_U245         U2_N8029732 U2_N156419582 INVERTER
X_U2_U267         U2_N8028460 U2_N8031166 U2_TOS U2_TOS NAND3_PS PARAMS: VHI=1
+  VLO=0 VTHRESH=500E-3 TPLH=1E-9 TPHL=1E-9 TR=1E-9 TF=1E-9
X_U2_U248         U2_HIREADY U2_N156432041 INVERTER
X_U2_U272         U2_LOWREADY U2_SSENDSET U2_UVP U2_N16105347 NOR3
E_U2_U5_ABM10         U2_U5_LUPB 0 VALUE { if( V(U2_U5_REFEFF)  
+ >V(VFB2) ,1,0)   }
R_U2_U5_R27         GND U2_U5_QRMP  1e8 TC=0,0 
C_U2_U5_C10         GND U2_U5_RMP  4p IC=0 TC=0,0 
R_U2_U5_R25         GND U2_U5_RMP  1e8 TC=0,0 
X_U2_U5_U239         U2_U5_LUPB U2_LOOPB INVERTER
E_U2_U5_ABM15         U2_U5_REFEFF 0 VALUE { ( V(U2_U5_RAMP)  
+ + V(SS2) )   }
X_U2_U5_S12    U2_U5_QRMP GND U2_U5_RMP GND PWM_U2_U5_S12 
X_U2_U5_U302         U2_DRVH_EVENT U2_U5_QRMP U2_U5_N152306122 MONOPOS_PS
+  PARAMS: PW=2n
G_U2_U5_ABMII4         V5FILT U2_U5_RMP VALUE { if(V(ENCIRD2) > 0.5, 12n , 0)  
+   }
E_U2_U5_ABM46         U2_U5_RAMP 0 VALUE { if(V(ENCIRD2)>0.5,  
+ LIMIT((V(U2_U5_RMP)-0.01),-10m,10m),0)   }
R_U2_U5_R26         GND U2_U5_N152306122  1e8 TC=0,0 
X_U2_U263         U2_SSENDSET ENCIRD2 ENCIRD2 U2_N8024778 NAND3_PS PARAMS:
+  VHI=1 VLO=0 VTHRESH=500E-3 TPLH=1E-9 TPHL=1E-9 TR=1E-9 TF=1E-9
X_U2_U297         U2_OCM N15593311 INVERTER
X_U2_U192         DRVL2 U2_N8029732 BUFFER_PS PARAMS: VHI=1 VLO=0 VTHRESH=2.5
+  TPLH=2E-9 TPHL=2E-9 TR=1E-9 TF=1E-9
X_U2_U215         U2_N8031494 U2_DRL1 BUFFER_PS PARAMS: VHI=1 VLO=0
+  VTHRESH=500E-3 TPLH=10E-9 TPHL=2E-9 TR=1E-9 TF=1E-9
X_U2_U286         U2_DRH1 U2_N8029314 INVERTER
X_U2_U282         U2_HIDRIVE U2_N8030314 U2_N8031562 AND
X_U2_U264         U2_N8024778 U2_SSENDSET U2_N8024792 SSEND2 NAND3_PS PARAMS:
+  VHI=1 VLO=0 VTHRESH=500E-3 TPLH=1E-9 TPHL=1E-9 TR=1E-9 TF=1E-9
X_U2_U281         U2_DRVH_EVENT U2_N8031306 U2_DRVHPREBIAS AND
R_U2_U3_R23         GND PGOOD2  1e6  
E_U2_U3_ABM59         U2_U3_HIGH_C 0 VALUE { if(V(VFB2)<2.15,1,0)    }
E_U2_U3_ABM60         U2_U3_LOW_C 0 VALUE { if(V(VFB2)>1.85,1,0)    }
E_U2_U3_ABM13         PGOOD2 0 VALUE { if( V(U2_U3_HIGH_C)>0.5  
+ & V(U2_U3_LOW_C)>0.5   
+ & V(ENUVPG2)>0.5, 1, 0 )  }
X_U2_U142         U2_ONSET U2_OVPX U2_LOOPB U2_OCL U2_N8028460 OR4_PS PARAMS:
+  VHI=1 VLO=0 VTHRESH=500E-3 TPLH=1E-9 TPHL=1E-9 TR=1E-9 TF=1E-9
X_U2_U274         ENCIRD2 U2_DRVOFF INVERTER
X_U2_U247         U2_LOWREADY U2_N156421802 INVERTER
X_U2_U298         U2_ZC SSEND2 U2_N15579419 AND
X_U2_U250         U2_DRVH_EVENT U2_N16091848 INVERTER
X_U2_U266         U2_N8024982 U2_ON U2_TOS ENCIRD2 NAND3_PS PARAMS: VHI=1 VLO=0
+  VTHRESH=500E-3 TPLH=1E-9 TPHL=1E-9 TR=1E-9 TF=1E-9
X_U2_U287         U2_DRH2 U2_N8030314 INVERTER
V_U2_V91         U2_V5 GND 5
X_U2_U6_U216         U2_U6_TRES ENCIRD2 U2_U6_N15798967 AND
C_U2_U6_C7         U2_U6_TON U2_U6_N15798845  6p IC=0 TC=0,0 
E_U2_U6_ABM20         U2_U6_N15798761 0 VALUE { if( V(U2_U6_TON)   
+ <V(U2_LLAVG),1,0)   }
C_U2_U6_C6         GND U2_U6_N15798933  3p IC=0 TC=0,0 
R_U2_U6_R37         GND U2_U6_N15798845  10k TC=0,0 
R_U2_U6_R33         U2_U6_VOS U2_U6_N15798683  800k TC=0,0 
X_U2_U6_S14    U2_U6_DQOS GND U2_U6_N15798845 GND TON2_U2_U6_S14 
C_U2_U6_C9         GND U2_U6_N15799073  3p IC=0 TC=0,0 
R_U2_U6_R34         GND U2_U6_VOS  1.2Meg TC=0,0 
E_U2_U6_E8         U2_U6_N15798683 GND LL2 GND 1
X_U2_U6_U194         U2_U6_N15798761 U2_U6_TRES BUFFER_PS PARAMS: VHI=1 VLO=0
+  VTHRESH=500E-3 TPLH=70n TPHL=70n TR=1E-9 TF=1E-9
R_U2_U6_R38         U2_U6_VOS U2_U6_N15799073  3Meg TC=0,0 
X_U2_U6_U217         U2_U6_DQOS U2_U6_N15798967 U2_TOS OR
R_U2_U6_R39         U2_U6_N15799073 U2_U6_N15798933  3Meg TC=0,0 
E_U2_U6_E9         U2_U6_DQOS GND U2_HIREADY GND 1
R_U2_U6_R35         U2_U6_TON U2_U6_N15798683  710k TC=0,0 
X_U2_U6_S15    U2_U6_DQOS GND U2_U6_TON U2_U6_N15798845 TON2_U2_U6_S15 
C_U2_U6_C5         GND U2_LLAVG  3p IC=0 TC=0,0 
R_U2_U6_R40         U2_U6_N15798933 U2_LLAVG  3Meg TC=0,0 
X_U2_U213         U2_N8031562 U2_DRH1 BUFFER_PS PARAMS: VHI=1 VLO=0
+  VTHRESH=500E-3 TPLH=10E-9 TPHL=2E-9 TR=1E-9 TF=1E-9
X_U2_S7    U2_DRL2 GND DRVL2 GND DCAP_ch2_U2_S7 
X_U2_U279         U2_HIDRIVE U2_N156442461 INVERTER
X_U2_U269         U2_LOWREADY U2_ENLOW1 U2_ONB U2_ZC NAND3_PS PARAMS: VHI=1
+  VLO=0 VTHRESH=500E-3 TPLH=1E-9 TPHL=1E-9 TR=1E-9 TF=1E-9
X_U2_U191         U2_N8032008 U2_N8031306 BUFFER_PS PARAMS: VHI=1 VLO=0
+  VTHRESH=500E-3 TPLH=2E-9 TPHL=20n TR=1E-9 TF=1E-9
X_U2_U212         U2_N156443741 U2_DRH2 BUFFER_PS PARAMS: VHI=1 VLO=0
+  VTHRESH=500E-3 TPLH=10E-9 TPHL=2E-9 TR=1E-9 TF=1E-9
X_U2_U273         U2_N16091840 U2_PRESET ENCIRD2 ENCIRD2 NAND3_PS PARAMS: VHI=1
+  VLO=0 VTHRESH=500E-3 TPLH=1E-9 TPHL=1E-9 TR=1E-9 TF=1E-9
E_U2_U4_ABM8         U2_U4_MODECHECK 0 VALUE { if( V(U2_PWMMODE)>0.5,  
+ -V(U2_U4_OCLTHR),  
+ V(GND) )  }
X_U2_U4_U292         U2_OCM U2_U4_N15985850 U2_TBLNKB ENCIRD2 NAND3_PS PARAMS:
+  VHI=1 VLO=0 VTHRESH=500E-3 TPLH=1E-9 TPHL=1E-9 TR=1E-9 TF=1E-9
C_U2_U4_C14         U2_U4_LLO GND  10p  TC=0,0 
X_U2_U4_U259         U2_U4_N15986326 U2_U4_OCLDIS U2_U4_OCLDIS U2_OCL NAND3_PS
+  PARAMS: VHI=1 VLO=0 VTHRESH=500E-3 TPLH=1E-9 TPHL=1E-9 TR=1E-9 TF=1E-9
X_U2_U4_U290         U2_U4_N15985944 U2_PWMMODE U2_ZC OR
X_U2_U4_U260         U2_OCL U2_U4_N15986326 U2_TBLNKB ENCIRD2 NAND3_PS PARAMS:
+  VHI=1 VLO=0 VTHRESH=500E-3 TPLH=1E-9 TPHL=1E-9 TR=1E-9 TF=1E-9
X_U2_U4_U262         U2_U4_N15985944 U2_U4_N15986788 U2_TBLNKB ENCIRD2 NAND3_PS
+  PARAMS: VHI=1 VLO=0 VTHRESH=500E-3 TPLH=1E-9 TPHL=1E-9 TR=1E-9 TF=1E-9
R_U2_U4_R9         U2_U4_LLO U2_U4_N15986742  100  
X_U2_U4_U238         ENCIRD2 U2_U4_N15985872 U2_U4_N15986244 AND
X_U2_U4_U242         U2_BLNKM U2_U4_N15986244 U2_U4_OCLDIS OR
E_U2_U4_ABM16         U2_U4_N15986114 0 VALUE { if( V(U2_U4_OCLTHR) * 0.5  
+ >V(U2_U4_LLO) ,1,0)   }
X_U2_U4_U240         U2_U4_NCL U2_U4_N15986250 INVERTER
X_U2_U4_U253         U2_BLNKM U2_U4_N15986200 U2_U4_OCMDIS OR
X_U2_U4_U243         U2_BLNKM U2_U4_N15986250 U2_U4_N15986654 OR
X_U2_U4_U14         CS2 V5FILT d_d1
X_U2_U4_U261         U2_U4_N15986788 U2_U4_N15986654 U2_U4_N15986654
+  U2_U4_N15985944 NAND3_PS PARAMS: VHI=1 VLO=0 VTHRESH=500E-3 TPLH=1E-9
+  TPHL=1E-9 TR=1E-9 TF=1E-9
X_U2_U4_U254         ENCIRD2 U2_U4_N15986114 U2_U4_N15986200 AND
E_U2_U4_ABM12         U2_U4_NCL 0 VALUE { if( V(U2_U4_LLO)  
+ >V(U2_U4_N15986256) ,1,0)   }
E_U2_U4_ABM11         U2_U4_N15985872 0 VALUE { if( V(U2_U4_OCLTHR) * {(1+
+  MODE) }  
+ >V(U2_U4_LLO) ,1,0)   }
E_U2_U4_E1         GND U2_U4_OCLTHR GND CS2 -.125
V_U2_U4_V87         U2_U4_N15986256 U2_U4_MODECHECK -5m
X_U2_U4_U273         U2_U4_N15985850 U2_U4_OCMDIS U2_U4_OCMDIS U2_OCM NAND3_PS
+  PARAMS: VHI=1 VLO=0 VTHRESH=500E-3 TPLH=1E-9 TPHL=1E-9 TR=1E-9 TF=1E-9
G_U2_U4_ABMII1         V5FILT CS2 VALUE { if(V(ENCIRD2) >0.5,10u,0)    }
E_U2_U4_ABM14         U2_U4_N15986742 0 VALUE { if( V(DRVL2)>2.5 & V(LL2) <0.5,
+   
+ V(LL2),  
+ V(GND) )  }
X_U2_U285         U2_N8029506 U2_N156423442 U2_N15641500 AND
X_U190         TODELAY DELAY BUFFER_PS PARAMS: VHI=1 VLO=0 VTHRESH=500E-3 TPLH=
+ {(1- MODE*0.9) *0.7m} TPHL=10u TR=1E-9 TF=1E-9
X_u5_U19         VREG3 u5_N10600939 VIN PMOSIDEAL_PS PARAMS: K=.3 VTH=1
V_u5_V7         u5_N10596726 GND 4.7
X_u5_S10    N15159302 GND VREF GND LDOs_u5_S10 
X_u5_U14         VREF u5_N10597008 VIN PMOSIDEAL_PS PARAMS: K=.1 VTH=1
R_u5_R29         u5_N10596400 VREG5  750k TC=0,0 
V_u5_V8         u5_N10596574 GND .2
X_u5_U20         VREG3 VIN d_d1
E_u5_ABM34         LOWVIN 0 VALUE { if( V(VIN) < 7, 1 ,0)    }
E_u5_ABM65         u5_N10600939 0 VALUE { if( V(N15159302)>0.5,  
+ V(u5_N10600895),  
+ V(VIN) )  }
E_u5_ABM35         VLOWVIN 0 VALUE { if( V(VIN) < 6, 1 ,0)    }
R_u5_R30         GND u5_N10596400  250K TC=0,0 
E_u5_ABM61         u5_ENVO 0 VALUE { IF( V(N15159302)>0.5  
+ ,V(u5_VOREADY),0)   }
V_u5_V9         u5_N15513752 GND  
+PULSE 5 0 100u 10n 10n 1.85u 3.7u
R_u5_R8         u5_N10597060 VREF  150k TC=0,0 
X_u5_U16         u5_ENVO u5_ENV5IN DELAY PARAMS: T=1E4
X_u5_U28         u5_N10597374 VIN u5_N10597060 u5_VR VCVSCLIP_PS PARAMS:
+  GAIN=5000 VOMAX=1 VOMIN=-2
E_u5_ABM32         u5_VR 0 VALUE { if(V(VIN) > 4, 1.25,0)    }
R_u5_R16         GND u5_N10597060  250K TC=0,0 
R_u5_R31         u5_N10600367 VREG3  410k TC=0,0 
X_u5_S9    u5_ENV5IN GND VREG5 VO1 LDOs_u5_S9 
X_u5_U27         u5_N10596942 VIN u5_N10596400 u5_VR VCVSCLIP_PS PARAMS:
+  GAIN=5000 VOMAX=1 VOMIN=-2
E_u5_ABM68         u5_N10597008 0 VALUE { if( V(N15159302)>0.5,  
+ V(u5_N10597374),  
+ V(VIN) )  }
X_u5_U18         VREG5 u5_N10596986 VIN PMOSIDEAL_PS PARAMS: K=0.5 VTH=1
R_u5_R32         GND VCLK  10Meg TC=0,0 
E_u5_ABM69         VCLK 0 VALUE { if( V(EN1) > 0.5,  
+ V(u5_N15513752), 0)   }
X_u5_U21         VREG5 VIN d_d1
E_u5_ABM62         u5_N10596986 0 VALUE { if( V(u5_ENLDO5)>0.5,  
+ V(u5_N10596942),  
+ V(VIN) )  }
X_u5_U7         VO1 u5_N10596726 u5_N10596574 u5_VOREADY COMP_HYS
R_u5_R33         GND u5_N10600367  250K TC=0,0 
E_u5_ABM60         u5_ENLDO5 0 VALUE { IF( V(u5_ENV5IN)<0.5  
+ & V(EN1)>0.5 ,1,0)   }
X_u5_S11    N15159302 GND VREG3 GND LDOs_u5_S11 
X_u5_U29         u5_N10600895 VIN u5_N10600367 u5_VR VCVSCLIP_PS PARAMS: