*$
* TPS54010
*****************************************************************************
* (C) Copyright 2013 Texas Instruments Incorporated. All rights reserved.                                            
*****************************************************************************
** This model is designed as an aid for customers of Texas Instruments.
** TI and its licensors and suppliers make no warranties, either expressed
** or implied, with respect to this model, including the warranties of 
** merchantability or fitness for a particular purpose.  The model is
** provided solely on an "as is" basis.  The entire risk as to its quality
** and performance is with the customer
*****************************************************************************
*
* This model is subject to change without notice. Texas Instruments
* Incorporated is not responsible for updating this model.
*
*****************************************************************************
*
** Released by: WEBENCH Design Center, Texas Instruments Inc.
* Part: TPS54010
* Date: 14JUN2013
* Model Type: AVERAGE
* Simulator: PSPICE
* Simulator Version: 16.2.0.p001
* EVM Order Number: TPS54010EVM-067
* EVM Users Guide: SLVU114-August 2004
* Datasheet: SLVS509B – MAY 2004 – REVISED JUNE 2005
*
* Model Version: Final 1.00
*
*****************************************************************************
*
* Updates:
*
* Final 1.00
* Release to Web.
*
*****************************************************************************
.SUBCKT TPS54010_AVG AGND COMP PGND PH PVIN VSENSE  PARAMS: FS=500k L=0.68u 
.PARAM CLAMPH=0.90
R_R1         N14481242 N14513887  5 TC=0,0 
E_E2         COMP AGND N14513887 AGND 1
C_C1         AGND N14513887  1u  TC=0,0 
E_PWMVM_ABM2         PWMVM_FSV 0 VALUE { {FS}    }
E_PWMVM_L1_ABM4         PWMVM_L1_CLPN 0 VALUE { (V(PWMVM_FSV))*200n    }
R_PWMVM_L1_Rdc         PWMVM_L1_DCX 0  10k TC=0,0 
G_PWMVM_L1_Gdabm         0 PWMVM_L1_DCX VALUE { (V(N14496805) * 100u)    }
E_PWMVM_L1_ABM3         PWMVM_DC 0 VALUE { (V(PWMVM_L1_DCX) )    }
X_PWMVM_L1_U19         PWMVM_L1_DCX PWMVM_L1_CLPP d_d1 PARAMS:
E_PWMVM_L1_ABM5         PWMVM_L1_CLPP 0 VALUE { (V(PWMVM_N14540114))    }
X_PWMVM_L1_U20         PWMVM_L1_CLPN PWMVM_L1_DCX d_d1 PARAMS:
X_PWMVM_H1    PWMVM_CX PWMVM_N14543521 PWMVM_VM 0 PWMVM_PWMVM_H1 
G_PWMVM_GIap         PVIN PGND VALUE { (V(PWMVM_DC) * V(PWMVM_VM))    }
V_PWMVM_L2_V3         PWMVM_L2_CLPN 0 0.1Vdc
G_PWMVM_L2_Gdabm         0 PWMVM_L2_D2CX VALUE { (V(PWMVM_D2X) * 100u)    }
X_PWMVM_L2_U22         PWMVM_L2_CLPN PWMVM_L2_D2CX d_d1 PARAMS:
X_PWMVM_L2_U21         PWMVM_L2_D2CX PWMVM_L2_CLPP d_d1 PARAMS:
R_PWMVM_L2_Rdc1         PWMVM_L2_D2CX 0  10k TC=0,0 
E_PWMVM_L2_ABM7         PWMVM_L2_CLPP 0 VALUE { (1-V(PWMVM_DC) )    }
E_PWMVM_L2_ABM4         PWMVM_D2 0 VALUE { (V(PWMVM_L2_D2CX) )    }
E_PWMVM_Evcp         PWMVM_CX PGND PWMVM_N14536508 0 1
V_PWMVM_V3         PWMVM_N14540114 0 {CLAMPH}
R_PWMVM_R1         PWMVM_N14543521 PH  8m TC=0,0 
E_PWMVM_ABM4         PWMVM_D2X 0 VALUE { (1 - V(PWMVM_DC))    }
E_PWMVM_ABM3         PWMVM_N14536508 0 VALUE { V(PWMVM_DC) * V(PVIN,PGND)    }
V_V29         N14496479 AGND 1
V_V28         N14481017 AGND 0.891Vdc
E_E1         N14481242 AGND N14481017 VSENSE 316227.766
E_ABM1         N14496805 0 VALUE { (1* ((V(COMP)-0.75)/V(N14496479)))    }

.ENDS TPS54010_AVG
*$
.subckt PWMVM_PWMVM_H1 1 2 3 4  
H_PWMVM_H1         3 4 VH_PWMVM_H1 1
VH_PWMVM_H1         1 2 0V
.ends PWMVM_PWMVM_H1
*$
.subckt d_d1 1 2
d1 1 2 dd1
.model dd1 d
+ is=1e-015
+ tt=1e-011
+ rs=0.05
+ n=0.0001
.ends d_d1
*$
.SUBCKT LDCR IN OUT
+ PARAMs:  L=1u DCR=0.01 
L             IN 1  {L} 
RDCR	1 OUT {DCR}
.ENDS LDCR
*$
*
.SUBCKT CESR IN OUT
+ PARAMs:  C=100u ESR=0.01 X=2 
C	IN 1  {C*X} 
RESR	1 OUT {ESR/X}
.ENDS CESR
*$