*$
* TPS53119
*****************************************************************************
* (C) Copyright 2017 Texas Instruments Incorporated. All rights reserved.                                            
*****************************************************************************
** This model is designed as an aid for customers of Texas Instruments.
** TI and its licensors and suppliers make no warranties, either expressed
** or implied, with respect to this model, including the warranties of 
** merchantability or fitness for a particular purpose.  The model is
** provided solely on an "as is" basis.  The entire risk as to its quality
** and performance is with the customer
*****************************************************************************
*
* This model is subject to change without notice. Texas Instruments
* Incorporated is not responsible for updating this model.
*
*****************************************************************************
*
** Released by: Texas Instruments Inc.
* Part: TPS53119
* Date: 04DEC2017
* Model Type: TRANSIENT
* Simulator: PSPICE
* Simulator Version: 16.2.0.p001
* EVM Order Number: TPS53219EVM-690
* EVM Users Guide: SLVU431–January 2011
* Datasheet: SLUSD61 –NOVEMBER 2017
* Topologies Supported: Buck
*
* Model Version: Final 1.00
*
*****************************************************************************
*
* Updates: This model is productization from TPS53219A PSpice Model
*
* Final 1.00
* Release to Web.
*
*****************************************************************************
*
* Model Usage Notes:
* 1. The following features have been modeled
*      a. Soft Start time variation with respect to RMODE as per Datahseet's Table-1.
*      b. OUTPUT UV and OVP protection
*      c. Minimum On and Off time.
*      d. EN OFF Discharge
*      e. Current Limit
*      f. Shutdown Sequencing
*	   g. Output Sequencing
*	   g. Input UVLO Protection
* 2. Temperature effects are not modeled. 
* 3. The model has been validated across EVM corners.
*
*****************************************************************************
.SUBCKT TPS53119_TRANS TRIP EN VFB RF MODE VDD GND PGND VREG VDRV DRVL SW DRVH   
+ VBST NC PGOOD PAD PARAMS:  FASTSTART=1 FAST=0  
R_RNC         NC GND  1E6
R_RNC2         NC GND  1E6  
X_U271         HI_DEL N11102570 LOW_DELAY NOR2_BASIC_GEN PARAMS: VDD=1 VSS=0
+  VTHRESH=500E-3
X_U12         TRIP VREG5 d_d1 PARAMS:
X_U254         N15227107 SSEND TO_DELAY AND2_BASIC_GEN PARAMS: VDD=1 VSS=0
+  VTHRESH=500E-3
R_R39         GND HR  1Meg  
E_E5         GND OCLTHR GND TRIP -0.125
E_ABM27         VREG5 0 VALUE { V(VDRV)     }
X_S2    ENCIR GND SW GND TPS53219_TRANS_mod_S2 
X_U573         N15051571 OVLATCH BUF_DELAY_BASIC_GEN PARAMS: VDD=1 VSS=0
+  VTHRESH=.5 DELAY=5u
X_U574         N15427136 N15528055 BUF_DELAY_BASIC_GEN PARAMS: VDD=1 VSS=0
+  VTHRESH=.5 DELAY=3u
X_U278         HI_READY N11102570 INV_BASIC_GEN PARAMS: VDD=1 VSS=0
+  VTHRESH=500E-3
X_U248         NCL NCLB INV_BASIC_GEN PARAMS: VDD=1 VSS=0 VTHRESH=500E-3
G_ABM2I3         VREG5 RMP VALUE { if(V(ENCIRD)>0.5, (7u/V(TSEL)),0)    }
E_added DRVL_hi 0 VALUE {if( V(DRVL)>2.5,1,0)}
R_add1  DRVL_hi DRVL_hi_del 20
C_add1 DRVL_hi_del 0 1.443n
X_add DRVL_hi_del DRVL_hi  TPS53219A_D_D111
E_ABM9         N15810938 0 VALUE { if( V(DRVL_hi_del)>0.5 ,
+ V(SW),
+ V(PGND) )  }
R_R41         GND FTIME  10e7  
X_U11         VREG5 VBST d_d1 PARAMS:
X_U260         N11099406 TBLNKB ENCIRD ONS2 NAND3_BASIC_GEN PARAMS: VDD=1 VSS=0
+  VTHRESH=500E-3
E_ABM60         LOW_C 0 VALUE { if(V(VFB)> 0.54,1,0)    }
E_ABM14         N15051571 0 VALUE { IF(V(VFB) > 0.72 &  
+ V(ENCIRD) >0.5,1,0)   }
X_U269         LOW_DELAY ONB ZC LOW_READY NAND3_BASIC_GEN PARAMS: VDD=1 VSS=0
+  VTHRESH=500E-3
E_ABM16         N15558681 0 VALUE { IF(V(VFB) < 0.42 &  
+ V(SSEND) >.5,1,0)   }
V_V77         N11100662 GND 20
X_U257         LBB LBB ONS1 N11098890 NAND3_BASIC_GEN PARAMS: VDD=1 VSS=0
+  VTHRESH=500E-3
E_ABM15         REFEFF 0 VALUE { V(VREF)  
+ + V(RAMP)   }
X_U274         ENCIRD DRVOFF INV_BASIC_GEN PARAMS: VDD=1 VSS=0 VTHRESH=500E-3
R_R40         GND N14941378  1e11  
E_E10         VOINFO GND SWAVG GND 1
X_S5    DRH1 GND VBST DRVH TPS53219_TRANS_mod_S5 
V_V87         NCLTHR MODECHECK 1m
X_U50         N15336163 UVP N15561635 N15891664 srnandlatchshp_basic PARAMS:
E_E6         N11426627 GND TRIP GND 0.125
C_C14         FTIME GND  1n  TC=0,0 
X_U261         N11095242 N11095242 ZC N11095302 NAND3_BASIC_GEN PARAMS: VDD=1
+  VSS=0 VTHRESH=500E-3
X_U193         HI_READY DQOS BUFFER_PS PARAMS: VHI=1 VLO=0 VTHRESH=500E-3
+  TPLH=2E-9 TPHL=2E-9 TR=1E-9 TF=1E-9
X_U275         OVP DRVOFF HI_READY UVP DRH1 NOR4_BASIC_GEN PARAMS: VDD=1 VSS=0
+  VTHRESH=500E-3
E_E7         RMPIN GND RMP GND 1
R_R30         GND N158720720  1e8 TC=0,0 
X_U264         SSENDSET N11095154 SSEND N11095132 NAND3_BASIC_GEN PARAMS: VDD=1
+  VSS=0 VTHRESH=500E-3
X_u1_H1    u1_N12800130 u1_N12799590 u1_N12799266 GND RF_sel_mod_u1_H1 
E_u1_ABM43         u1_N12799272 0 VALUE { ( V(u1_N13198704)  
+ +V(u1_N13198818) )    }
E_u1_E2         u1_N12800130 GND ENHI_TOGG GND 3
R_u1_R1         RF VREG  1e11 TC=0,0 
E_u1_ABM22         u1_SW4 0 VALUE { if(V(u1_RFSEL)>-5m & V(u1_RFSEL)<5m, 0.5,0)
+     }
E_u1_ABM19         u1_N13197927 0 VALUE { if(V(u1_RFSEL)>-240m &
+  V(u1_RFSEL)<-110m, 0.294,0)    }
E_u1_ABM44         u1_N13198704 0 VALUE { ( V(u1_SW1)  
+ +V(u1_SW2) )    }
X_u1_S4    ENHI_TOGG GND RF u1_N12799590 RF_sel_mod_u1_S4 
R_u1_R4         GND u1_RFSEL  1Meg TC=0,0 
R_u1_R33         GND TSEL  1e6  
E_u1_ABM4         u1_SW1 0 VALUE { if(V(u1_RFSEL)>2.9, 1,0)    }
E_u1_ABM47         u1_N13199055 0 VALUE { ( V(u1_N13197927)  
+ +V(u1_N13198035) )    }
E_u1_E4         u1_RFSEL GND u1_N12799266 GND 10000
X_u1_S3    ENHI_RECAL GND u1_N12799504 TSEL RF_sel_mod_u1_S3 
E_u1_ABM17         u1_N13197720 0 VALUE { if(V(u1_RFSEL)>-40m &
+  V(u1_RFSEL)<-15m, 0.385,0)    }
E_u1_ABM20         u1_N13198035 0 VALUE { if(V(u1_RFSEL)<-1.45, 0.258,0)    }
E_u1_ABM21         u1_SW3 0 VALUE { if(V(u1_RFSEL)>45m & V(u1_RFSEL)<55m,
+  0.625,0)    }
E_u1_ABM18         u1_N13197822 0 VALUE { if(V(u1_RFSEL)>-101m &
+  V(u1_RFSEL)<-45m, 0.333,0)    }
R_u1_R2         GND RF  1e11 TC=0,0 
E_u1_ABM46         u1_N13198935 0 VALUE { ( V(u1_N13197720)  
+ +V(u1_N13197822) )    }
E_u1_ABM16         u1_SW2 0 VALUE { if(V(u1_RFSEL)>145m & V(u1_RFSEL)<155m,
+  0.833,0)    }
E_u1_ABM45         u1_N13198818 0 VALUE { ( V(u1_SW3)  
+ +V(u1_SW4) )    }
E_u1_ABM41         u1_N12799504 0 VALUE { ( V(u1_N12799272)  
+ +V(u1_N12799890) )    }
C_u1_C12         GND TSEL  10m IC=0 TC=0,0 
E_u1_ABM40         u1_N12799890 0 VALUE { ( V(u1_N13198935)  
+ +V(u1_N13199055) )    }
C_C4         GND TON  10p IC=0 TC=0,0 
X_U288         UVLATCH SSEND N15549457 AND2_BASIC_GEN PARAMS: VDD=1 VSS=0
+  VTHRESH=500E-3
X_U245         N11098248 N11102690 INV_BASIC_GEN PARAMS: VDD=1 VSS=0
+  VTHRESH=500E-3
X_S8    DRL2 GND DRVL PGND TPS53219_TRANS_mod_S8 
X_U220         N11579823 L_PGOOD INV_BASIC_GEN PARAMS: VDD=1 VSS=0
+  VTHRESH=500E-3
R_R27         GND AFTER_DELAY  1e6  
X_u_U9         u_SS VREG d_d1 PARAMS:
X_u_S3    ENHI_RECAL GND u_N13177195 u_VSNH SOFTSTART_mod_u_S3 
E_u_ABM36         PWMMODE 0 VALUE { if(V(MODE) >1.8, 1,0)    }
R_u_R22         GND SSEND  1Meg  
X_u_S5    u_ENSS GND u_SS GND SOFTSTART_mod_u_S5 
R_u_R33         GND u_VSNH  1e6  
R_u_R34         GND u_N154634250  1e6  
E_u_ABM40         u_N13173726 0 VALUE { ( V(u_SW3)  
+ +V(u_SW4) )    }
E_u_ABM41         u_N13177195 0 VALUE { ( V(u_N13173260)  
+ +V(u_N13173726) )    }
E_u_ABM4         VREF 0 VALUE { if(V(u_SS)>0.6, .6,V(u_SS))    }
C_u_C12         GND u_VSNH  10m IC=0 TC=0,0 
E_u_ABM37         u_SW3 0 VALUE { if(V(u_MODESEL)>9.5 & V(u_MODESEL)<10.5,
+  .429,0)    }
R_u_R35         GND UVP  1e6  
C_u_C13         u_SS GND  1n  TC=0,0 
X_u_U579         u_N15457902 UVP u_ENSS u_N154634250 srlatchshp PARAMS: VDD=1
+  VSS=0 VTHRESH=.5
G_u_ABM2I1         VREG u_SS VALUE { if(V(u_ENSS) >0.5& V(ENCIRD)>0.5,
+  V(u_VSNH)*{1u+FAST*4u}, 0)    }
X_u_H1    u_N13171505 u_N13171363 u_N13171277 GND SOFTSTART_mod_u_H1 
E_u_ABM2         SSEND 0 VALUE { if(V(u_SS)>0.599, 1,0)    }
X_u_S4    ENHI_TOGG GND MODE u_N13171363 SOFTSTART_mod_u_S4 
X_u_U208         ENCIR ENCIRD BUFFER_PS PARAMS: VHI=1 VLO=0 VTHRESH=500E-3
+  TPLH=250u TPHL=2E-9 TR=1E-9 TF=1E-9
E_u_ABM43         u_N13173260 0 VALUE { ( V(u_SW1)  
+ +V(u_SW2) )    }
E_u_ABM38         u_SW4 0 VALUE { if( V(u_MODESEL)>25, .857,0)    }
X_u_U582         HS ENHI_TOGG u_N15457902 OR2_BASIC_GEN PARAMS: VDD=1 VSS=0
+  VTHRESH=500E-3
C_u_C14         HS GND  1n IC=1 TC=0,0 
E_u_E2         u_N13171505 GND ENHI_TOGG GND .1
E_u_ABM16         u_SW2 0 VALUE { if(V(u_MODESEL)<5.5 & V(u_MODESEL)>4.5,
+  .214,0)    }
E_u_E4         u_MODESEL GND u_N13171277 GND 1E7
R_u_R4         GND u_MODESEL  1Meg TC=0,0 
E_u_ABM5         u_SW1 0 VALUE { if(V(u_MODESEL)<2.2, 0.107,0)    }
X_U217         DQOS N11102424 TOS OR2_BASIC_GEN PARAMS: VDD=1 VSS=0
+  VTHRESH=500E-3
X_U279         DRH1 DRH2 INV_BASIC_GEN PARAMS: VDD=1 VSS=0 VTHRESH=500E-3
R_R29         TRIP GND  1e15 TC=0,0 
X_U268         ENCIRD ONG TBLNK N11101694 NAND3_BASIC_GEN PARAMS: VDD=1 VSS=0
+  VTHRESH=500E-3
X_U265         ONSET ONSET N11095332 ON NAND3_BASIC_GEN PARAMS: VDD=1 VSS=0
+  VTHRESH=500E-3
X_S9    L_PGOOD GND PGOOD GND TPS53219_TRANS_mod_S9 
X_U142         ONSET ONS3 ONS1 ONS2 TBLNK OR4_PS PARAMS: VHI=1 VLO=0
+  VTHRESH=500E-3 TPLH=1E-9 TPHL=1E-9 TR=1E-9 TF=1E-9
X_U253         HIGH_C LOW_C N15227107 AND2_BASIC_GEN PARAMS: VDD=1 VSS=0
+  VTHRESH=500E-3
E_ABM12         NCL 0 VALUE { if( V(LLO)  
+ >V(NCLTHR) ,1,0)   }
X_U579         HS HR N15427136 N15592684 srlatchrhp PARAMS: VDD=1 VSS=0
+  VTHRESH=.5
R_R32         GND N15571551  1Meg  
R_R270         GND N15528055  100MEG  
X_U302         DRVHPREBIAS QRMP N158720720 MONOPOS_PS PARAMS: PW=10n
R_R26         LLO GND  1e15 TC=0,0 
X_U241         BLNKM LOOPB LBB OR2_BASIC_GEN PARAMS: VDD=1 VSS=0 VTHRESH=500E-3
X_U250         N15528055 N15507526 INV_BASIC_GEN PARAMS: VDD=1 VSS=0
+  VTHRESH=500E-3
R_R7         PAD GND  1E11 TC=0,0 
E_ABM5         HS 0 VALUE { if(V(FTIME)>1, 1,0)    }
X_U286         LOW_READY PREBIAS SSENDSET UVP N15882825 NOR4_BASIC_GEN PARAMS:
+  VDD=1 VSS=0 VTHRESH=500E-3
R_R23         GND TON  10Meg TC=0,0 
E_E8         SWINFO GND SW GND 1
X_U300         ONG N158939110 INV_PS PARAMS: VHI=1 VLO=0 VTHRESH=500E-3
+  TPLH=1E-9 TPHL=1E-9 TR=1E-9 TF=1E-9
E_ABM61         UVLATCH 0 VALUE { if( V(OVP) <0.5,   
+ V(N15743391),  
+ V(N15558681) )  }
E_ABM19         N11101396 0 VALUE { if( V(N11100856)  
+ >V(TON) ,1,0)   }
X_S6    DRH2 GND DRVH SW TPS53219_TRANS_mod_S6 
X_U247         LOW_READY N15883597 INV_BASIC_GEN PARAMS: VDD=1 VSS=0
+  VTHRESH=500E-3
X_S11    QRMP GND RMP GND TPS53219_TRANS_mod_S11 
X_U244         LUPB N13139679 N12929032 OR2_BASIC_GEN PARAMS: VDD=1 VSS=0
+  VTHRESH=500E-3
X_U578         UVP HR N15404306 N15402579 srlatchrhp PARAMS: VDD=1 VSS=0
+  VTHRESH=.5
R_R20         GND TO_DELAY  1e6  
X_U262         N11095302 TBLNKB ENCIRD ZC NAND3_BASIC_GEN PARAMS: VDD=1 VSS=0
+  VTHRESH=500E-3
X_U192         DRVL N11098248 BUFFER_PS PARAMS: VHI=1 VLO=0 VTHRESH=2.5
+  TPLH=2E-9 TPHL=2E-9 TR=1E-9 TF=1E-9
R_R33         GND UVP  1Meg  
R_R37         GND N14941452  1Meg  
X_U251         PWMMODE FAULT NEGLIM OR2_BASIC_GEN PARAMS: VDD=1 VSS=0
+  VTHRESH=500E-3
R_R6         SWAVG N12468476  1e6 TC=0,0 
X_U243         BLNKM NCLB N11095242 OR2_BASIC_GEN PARAMS: VDD=1 VSS=0
+  VTHRESH=500E-3
X_U281         DRVHPREBIAS N11101836 HI_DEL AND2_BASIC_GEN PARAMS: VDD=1 VSS=0
+  VTHRESH=500E-3
E_ABM31         N11579823 0 VALUE { if(V(AFTER_DELAY)>0.5,1,0)    }
X_U197         N15533916 HR BUFFER_PS PARAMS: VHI=1 VLO=0 VTHRESH=.5 TPLH=2u
+  TPHL=2u TR=1E-9 TF=1E-9
X_U276         NCLBPWM N15882825 DRL1 OR2_BASIC_GEN PARAMS: VDD=1 VSS=0
+  VTHRESH=500E-3
X_S12    N15468168 GND FTIME GND TPS53219_TRANS_mod_S12 
R_R34         GND ENHI_TOGG1  1Meg  
V_R9 LLO N15810938 0
X_U258         N11098890 TBLNKB ENCIRD ONS1 NAND3_BASIC_GEN PARAMS: VDD=1 VSS=0
+  VTHRESH=500E-3
R_R38         GND N15402579  1Meg  
X_U242         BLNKM OCLHI OCLDIS OR2_BASIC_GEN PARAMS: VDD=1 VSS=0
+  VTHRESH=500E-3
X_U577         N15558681 N15743391 BUF_DELAY_BASIC_GEN PARAMS: VDD=1 VSS=0
+  VTHRESH=.5 DELAY=1m
X_U259         OCLDIS OCLDIS ONS2 N11099406 NAND3_BASIC_GEN PARAMS: VDD=1 VSS=0
+  VTHRESH=500E-3
X_U252         PWMMODE NCL N13139679 AND2_BASIC_GEN PARAMS: VDD=1 VSS=0
+  VTHRESH=500E-3
G_ABM2I5         VDD FTIME VALUE { if(V(ENCIRD) >0.5 & V(N15404306) >0.5,
+  0.25u, 0)    }
C_C5         GND N12468476  10p IC=0 TC=0,0 
V_V82         N11100856 VSEL 10m
X_U51         N15549457 ENHI_TOGG1 UVP N15571551 srnandlatchshp_basic PARAMS:
X_U576         DRVHPREBIAS N14941378 N14941452 PREBIAS srlatchrhp PARAMS: VDD=1
+  VSS=0 VTHRESH=.5
C_C8         GND RMP  4n IC=0 TC=0,0 
X_U239         N12929032 LOOPB INV_BASIC_GEN PARAMS: VDD=1 VSS=0 VTHRESH=500E-3
X_U266         ON TOS ENCIRD N11095332 NAND3_BASIC_GEN PARAMS: VDD=1 VSS=0
+  VTHRESH=500E-3
X_U191         N11102570 N11101836 BUFFER_PS PARAMS: VHI=1 VLO=0 VTHRESH=500E-3
+  TPLH=2n TPHL=15n TR=1E-9 TF=1E-9
G_ABM2I2         TON GND VALUE { if(V(DQOS) >.75, V(TON)/200,0)    }
R_R271         GND N15507526  100MEG  
X_U249         ON ONB INV_BASIC_GEN PARAMS: VDD=1 VSS=0 VTHRESH=500E-3
R_R5         N12468476 SWINFO  1e6 TC=0,0 
C_u6_C5         GND u6_REG5  100p  
E_u6_ABM20         u6_ENVREG5 0 VALUE { if( V(u6_ENSW)>0.5  
+ & V(VDD)>4.49,LIMIT(V(VDD),0,6.2),0)   }
E_u6_ABM17         u6_ENSW 0 VALUE { if(V(EN)>1.5,1,0)    }
R_u6_R15         GND ENHI_TOGG  1E8  
X_u6_S1    u6_ENVREG5 GND VREG GND LDO_mod_u6_S1 
R_u6_R4         u6_REG5 u6_ENVREG5  1  
C_u6_C1         GND EN  1p IC=0 TC=0,0 
G_u6_G2         u6_REG5 VREG TABLE { V(u6_REG5, VREG) } 
+ ( (-10,-12m)(-1m,-10m)(0,0)(1m,45m)(10,50m) )
X_u6_U297         EN u6_N11744078 ENHI_RECAL MONOPOS_PS PARAMS: PW=230u
X_u6_U15          VREG u6_V5INOK COMP_HYS2 PARAMS:  TH=4.05 HYS=.25
E_u6_ABM19         ENCIR 0 VALUE { if( V(u6_ENSW)>0.5  
+ & V(u6_V5INOK)>0.5,1,0)   }
R_u6_R14         GND ENHI_RECAL  1E8  
X_u6_U210         u6_N11744078 ENHI_TOGG BUFFER_PS PARAMS: VHI=1 VLO=0
+  VTHRESH=500E-3 TPLH=2n TPHL=20u TR=1E-9 TF=1E-9
X_U216         N11101396 ENCIRD N11102424 AND2_BASIC_GEN PARAMS: VDD=1 VSS=0
+  VTHRESH=500E-3
X_U299         N158939110 LOW_READY INV_PS PARAMS: VHI=1 VLO=0 VTHRESH=500E-3
+  TPLH=250n TPHL=1E-9 TR=1E-9 TF=1E-9
X_U277         ZC N11102690 N11102362 OR2_BASIC_GEN PARAMS: VDD=1 VSS=0
+  VTHRESH=500E-3
X_U290         NCLB FAULT NCLBPWM AND2_BASIC_GEN PARAMS: VDD=1 VSS=0
+  VTHRESH=500E-3
E_ABM10         LUPB 0 VALUE { if( V(REFEFF)  
+ >V(VFB) ,1,0)   }
X_U196         HR N15468168 BUFFER_PS PARAMS: VHI=1 VLO=0 VTHRESH=.5 TPLH=1u
+  TPHL=1u TR=1E-9 TF=1E-9
R_R25         GND N15891664  1Meg  
X_U294         ON ON1 HI_READY NAND2_BASIC_GEN PARAMS: VDD=1 VSS=0
+  VTHRESH=500E-3
X_U267         N11101694 TOS TOS TBLNK NAND3_BASIC_GEN PARAMS: VDD=1 VSS=0
+  VTHRESH=500E-3
R_R24         GND RMP  10Meg TC=0,0 
X_U256         N15427136 N15507526 N15533916 AND2_BASIC_GEN PARAMS: VDD=1 VSS=0
+  VTHRESH=500E-3
E_ABM20         ONS3 0 VALUE { if( V(SWAVG)  
+ >V(N11100662) ,1,0)   }
X_U291         ENHI_TOGG HS ENHI_TOGG1 OR2_BASIC_GEN PARAMS: VDD=1 VSS=0
+  VTHRESH=500E-3
X_U188         TBLNK N12239510 BUFFER_PS PARAMS: VHI=1 VLO=0 VTHRESH=500E-3
+  TPLH=2n TPHL=10E-9 TR=1E-9 TF=1E-9
X_U263         ENCIRD ENCIRD N11095132 SSENDSET NAND3_BASIC_GEN PARAMS: VDD=1
+  VSS=0 VTHRESH=500E-3
X_U246         N12239510 TBLNKB INV_BASIC_GEN PARAMS: VDD=1 VSS=0
+  VTHRESH=500E-3
X_U287         OVLATCH ENCIRD N15336163 AND2_BASIC_GEN PARAMS: VDD=1 VSS=0
+  VTHRESH=500E-3
E_ABM3         DRVHPREBIAS 0 VALUE { if(V(DRVH)>5,1,0)    }
R_R269         GND N15592684  100MEG  
G_ABM2I1         VREG TON VALUE { if(V(DQOS)<0.25, V(SWINFO)/384K,0)    }
X_U296         TBLNKB N11102362 BLNKM NAND2_BASIC_GEN PARAMS: VDD=1 VSS=0
+  VTHRESH=500E-3
E_ABM8         MODECHECK 0 VALUE { if( V(NEGLIM)>0.5,  
+ V(N11426627),  
+ V(GND) )  }
E_ABM11         OCLHI 0 VALUE { if( V(OCLTHR)  
+ >V(LLO) ,1,0)   }
X_U194         TO_DELAY AFTER_DELAY BUFFER_PS PARAMS: VHI=1 VLO=0 VTHRESH=0.5
+  TPLH={1m*(1-0.8*FAST)} TPHL=10u TR=1E-9 TF=1E-9
E_ABM47         OVP 0 VALUE { if( V(N15561635)>0.5 &  
+ V(ENCIRD) >0.5, 1,0)   }
E_ABM42         VSEL 0 VALUE { ( V(TSEL)  
+ * V(VOINFO) )    }
E_ABM59         HIGH_C 0 VALUE { if(V(VFB)<0.69,1,0)    }
X_u295         HI_DEL DRH1 N11095154 NAND2_BASIC_GEN PARAMS: VDD=1 VSS=0
+  VTHRESH=500E-3
X_U270         N11098248 N15883597 ON1 NOR2_BASIC_GEN PARAMS: VDD=1 VSS=0
+  VTHRESH=500E-3
C_C6         GND SWAVG  5p IC=0 TC=0,0 
E_ABM46         RAMP 0 VALUE { if(V(ENCIRD)>0.5,   
+ LIMIT((V(RMPIN)-0.007),-7m,3.5m),0)   }
X_U10         FTIME VDD d_d1 PARAMS:
X_S7    DRL1 GND VREG5 DRVL TPS53219_TRANS_mod_S7 
G_ABMII1         VREG5 TRIP VALUE { if(V(ENCIR)>0.5, 10u,0)    }
X_U280         DRL1 DRL2 INV_BASIC_GEN PARAMS: VDD=1 VSS=0 VTHRESH=500E-3
X_U289         OVP SSEND FAULT AND2_BASIC_GEN PARAMS: VDD=1 VSS=0
+  VTHRESH=500E-3
R_R31         GND QRMP  1e8 TC=0,0 
.ENDS TPS53119_TRANS
*$
.subckt TPS53219_TRANS_mod_S2 1 2 3 4  
S_S2         3 4 1 2 _S2
RS_S2         1 2 1G
.MODEL         _S2 VSWITCH Roff=1e11 Ron=40 Voff=.75 Von=.25
.ends TPS53219_TRANS_mod_S2
*$
.subckt TPS53219_TRANS_mod_S5 1 2 3 4  
S_S5         3 4 1 2 _S5
RS_S5         1 2 1G
.MODEL         _S5 VSWITCH Roff=1e11 Ron=1.5 Voff=.25 Von=.75
.ends TPS53219_TRANS_mod_S5
*$
.subckt RF_sel_mod_u1_H1 1 2 3 4  
H_u1_H1         3 4 VH_u1_H1 1
VH_u1_H1         1 2 0V
.ends RF_sel_mod_u1_H1
*$
.subckt RF_sel_mod_u1_S4 1 2 3 4  
S_u1_S4         3 4 1 2 _u1_S4
RS_u1_S4         1 2 1G
.MODEL         _u1_S4 VSWITCH Roff=1e10 Ron=10k Voff=0.0 Von=1.0
.ends RF_sel_mod_u1_S4
*$
.subckt RF_sel_mod_u1_S3 1 2 3 4  
S_u1_S3         3 4 1 2 _u1_S3
RS_u1_S3         1 2 1G
.MODEL         _u1_S3 VSWITCH Roff=1e11 Ron=10u Voff=1 Von=0
.ends RF_sel_mod_u1_S3
*$
.subckt TPS53219_TRANS_mod_S8 1 2 3 4  
S_S8         3 4 1 2 _S8
RS_S8         1 2 1G
.MODEL         _S8 VSWITCH Roff=1e11 Ron=0.5 Voff=.25 Von=.75
.ends TPS53219_TRANS_mod_S8
*$
.subckt SOFTSTART_mod_u_S3 1 2 3 4  
S_u_S3         3 4 1 2 _u_S3
RS_u_S3         1 2 1G
.MODEL         _u_S3 VSWITCH Roff=1e11 Ron=10u Voff=1 Von=0
.ends SOFTSTART_mod_u_S3
*$
.subckt SOFTSTART_mod_u_S5 1 2 3 4  
S_u_S5         3 4 1 2 _u_S5
RS_u_S5         1 2 1G
.MODEL         _u_S5 VSWITCH Roff=1e11 Ron=1 Voff=.75 Von=.25
.ends SOFTSTART_mod_u_S5
*$
.subckt SOFTSTART_mod_u_H1 1 2 3 4  
H_u_H1         3 4 VH_u_H1 1
VH_u_H1         1 2 0V
.ends SOFTSTART_mod_u_H1
*$
.subckt SOFTSTART_mod_u_S4 1 2 3 4  
S_u_S4         3 4 1 2 _u_S4
RS_u_S4         1 2 1G
.MODEL         _u_S4 VSWITCH Roff=1e10 Ron=1.0 Voff=0.0V Von=1.0V
.ends SOFTSTART_mod_u_S4
*$
.subckt TPS53219_TRANS_mod_S9 1 2 3 4  
S_S9         3 4 1 2 _S9
RS_S9         1 2 1G
.MODEL         _S9 VSWITCH Roff=1e8 Ron=30 Voff=0.25 Von=0.75
.ends TPS53219_TRANS_mod_S9
*$
.subckt TPS53219_TRANS_mod_S6 1 2 3 4  
S_S6         3 4 1 2 _S6
RS_S6         1 2 1G
.MODEL         _S6 VSWITCH Roff=1e11 Ron=0.7 Voff=.25 Von=.75
.ends TPS53219_TRANS_mod_S6
*$
.subckt TPS53219_TRANS_mod_S11 1 2 3 4  
S_S11         3 4 1 2 _S11
RS_S11         1 2 1G
.MODEL         _S11 VSWITCH Roff=1e11 Ron=1m Voff=.25 Von=.75
.ends TPS53219_TRANS_mod_S11
*$
.subckt TPS53219_TRANS_mod_S12 1 2 3 4  
S_S12         3 4 1 2 _S12
RS_S12         1 2 1G
.MODEL         _S12 VSWITCH Roff=1e11 Ron=1 Voff=.25 Von=.75
.ends TPS53219_TRANS_mod_S12
*$
.subckt LDO_mod_u6_S1 1 2 3 4  
S_u6_S1         3 4 1 2 _u6_S1
RS_u6_S1         1 2 1G
.MODEL         _u6_S1 VSWITCH Roff=1e8 Ron=100 Voff=3.6 Von=3.4
.ends LDO_mod_u6_S1
*$
.subckt TPS53219_TRANS_mod_S7 1 2 3 4  
S_S7         3 4 1 2 _S7
RS_S7         1 2 1G
.MODEL         _S7 VSWITCH Roff=1e11 Ron=1 Voff=.25 Von=.75
.ends TPS53219_TRANS_mod_S7
*$
.subckt d_d1 1 2
d1 1 2 dd1
.model dd1 d
+ is=1e-015
+ tt=1e-011
+ rs=0.01
+ n=0.01
.ends d_d1
*$
.subckt TPS53219A_D_D111 1 2
d1 1 2 TPS53219A_DD1 
.model TPS53219A_DD1 d
+ is=1e-018
+ tt=1e-011
+ rs=0.02
+ n=0.01
.ends TPS53219A_D_D111 
*$
.subckt srnandlatchshp_basic s r q qb
r1 r 0 1e11
r2 s 0 1e11
gq 0 qint value = {if(v(s) > .5,5,if(v(r)>.5,-5, 0))}
cqint qint 0 1n
rqint qint 0 1000meg
d_d10 qint my5 d_d1
v1 my5 0 5
d_d11 0 qint d_d1 
eq qqq 0 qint 0 1
x3 qqq qqqd1 buffer_ps
rqq qqqd1 q 1
eqb qbr 0 value = {if( v(q) > .5, 0,1)}
rqb qbr qb 1 
cdummy1 q 0 10p ic={1}
cdummy2 qb 0 10p ic={0}
.model d_d1 d
+ is=1e-015
+ tt=1e-011
+ rs=0.05
+ n=0.1
.ends srnandlatchshp_basic
*$
.subckt srlatchshp s r q qb params: vdd=1 vss=0 vthresh=0.5 
rs s 0 1e11
rr r 0 1e11
gq 0 qint value = {if(v(s) > {vthresh},5,if(v(r)>{vthresh},-5, 0))}
cqint qint 0 1n
rqint qint 0 1000meg
d_d10 qint my5 d_d1
v1 my5 0 {vdd}
d_d11 myvss qint d_d1
v2 myvss 0 {vss} 
eq qqq 0 qint 0 1
x3 qqq qqqd1 buffer_ps
rqq qqqd1 q 1
eqb qbr 0 value = {if( v(q) > {vthresh}, {vss},{vdd})}
rqb qbr qb 1 
cdummy1 q 0 10p 
cdummy2 qb 0 10p
.ic v(qint) {vss}
.model d_d1 d
+ is=1e-015
+ tt=1e-011
+ rs=0.05
+ n=0.1
.ends srlatchshp
*$
.subckt srlatchrhp s r q qb params: vdd=1 vss=0 vthresh=0.5 
rs s 0 1e11
rr r 0 1e11
gq 0 qint value = {if(v(r) > {vthresh},-5,if(v(s)>{vthresh},5, 0))}
cqint qint 0 1n
rqint qint 0 1000meg
d_d10 qint my5 d_d1
v1 my5 0 {vdd}
d_d11 myvss qint d_d1
v2 myvss 0 {vss} 
eq qqq 0 qint 0 1
x3 qqq qqqd1 buffer_ps
rqq qqqd1 q 1
eqb qbr 0 value = {if( v(q) > {vthresh}, {vss},{vdd})}
rqb qbr qb 1 
cdummy1 q 0 10p 
cdummy2 qb 0 10p
.ic v(qint) {vss}
.model d_d1 d
+ is=1e-015
+ tt=1e-011
+ rs=0.05
+ n=0.1
.ends srlatchrhp
*$
.SUBCKT COMP_BASIC_GEN INP INM Y PARAMS: VDD=1 VSS=0 VTHRESH=0.5	
E_ABM Yint 0 VALUE {IF (V(INP) > 
+ V(INM), {VDD},{VSS})}
R1 Yint Y 1
C1 Y 0 1n
.ENDS COMP_BASIC_GEN
*$
.SUBCKT COMPHYS_BASIC_GEN INP INM HYS OUT PARAMS: VDD=1 VSS=0 VTHRESH=0.5	
EIN INP1 INM1 INP INM 1 
EHYS INP1 INP2 VALUE { IF( V(1) > {VTHRESH},-V(HYS),0) }
EOUT OUT 0 VALUE { IF( V(INP2)>V(INM1), {VDD} ,{VSS}) }
R1 OUT 1 1
C1 1 0 5n
RINP1 INP1 0 1K
.ENDS COMPHYS_BASIC_GEN
*$
.SUBCKT COMPHYS2_BASIC_GEN INP INM HYS OUT PARAMS: VDD=1 VSS=0 VTHRESH=0.5	
+ T=10
EIN INP1 INM1 INP INM 1 
EHYS INM2 INM1 VALUE { IF( V(1) > {VTHRESH},-V(HYS)/2,V(HYS)/2) }
EOUT OUT 0 VALUE { IF( V(INP1)>V(INM2), {VDD} ,{VSS}) }
R1 OUT 1 1
C1 1 0 {T*1e-9}
RINP1 INP1 0 10K
RINM2 INM2 0 10K
.ENDS COMPHYS2_BASIC_GEN
*$
.SUBCKT ONE_SHOT IN OUT
+ PARAMs:  T=100
S_S1         MEAS 0 RESET2 0 S1
E_ABM1         CH 0 VALUE { if( V(IN)>0.5 | V(OUT)>0.5,1,0)    }
R_R2         RESET2 RESET  0.1  
E_ABM3         OUT 0 VALUE { if( V(MEAS)<0.5 & V(CH)>0.5,1,0)    }
R_R1         MEAS CH  {T} 
C_C2         0 RESET2  1.4427n  
C_C1         0 MEAS  1.4427n  
E_ABM2         RESET 0 VALUE { if(V(CH)<0.5,1,0)    }
.MODEL         S1 VSWITCH Roff=1e9 Ron=1.0 Voff=0.25V Von=0.75V
.ENDS ONE_SHOT
*$
.SUBCKT AND2_BASIC_GEN A B Y PARAMS: VDD=1 VSS=0 VTHRESH=0.5 
E_ABMGATE    YINT 0 VALUE {{IF(V(A) > {VTHRESH}  &  
+ V(B) > {VTHRESH},{VDD},{VSS})}}
RINT YINT Y 1
CINT Y 0 1n
.ENDS AND2_BASIC_GEN
*$
.SUBCKT AND3_BASIC_GEN A B C Y PARAMS: VDD=1 VSS=0 VTHRESH=0.5 
E_ABMGATE    YINT 0 VALUE {{IF(V(A) > {VTHRESH}  &  
+ V(B) > {VTHRESH} &
+ V(C) > {VTHRESH},{VDD},{VSS})}}
RINT YINT Y 1
CINT Y 0 1n
.ENDS AND3_BASIC_GEN
*$
.SUBCKT AND4_BASIC_GEN A B C D Y PARAMS: VDD=1 VSS=0 VTHRESH=0.5 
E_ABMGATE    YINT 0 VALUE {{IF(V(A) > {VTHRESH}  &  
+ V(B) > {VTHRESH} &
+ V(C) > {VTHRESH} &
+ V(D) > {VTHRESH},{VDD},{VSS})}}
RINT YINT Y 1
CINT Y 0 1n
.ENDS AND4_BASIC_GEN
*$
.SUBCKT NAND2_BASIC_GEN A B Y PARAMS: VDD=1 VSS=0 VTHRESH=0.5 
E_ABMGATE    YINT 0 VALUE {{IF(V(A) > {VTHRESH}  &  
+ V(B) > {VTHRESH},{VSS},{VDD})}}
RINT YINT Y 1
CINT Y 0 1n
.ENDS NAND2_BASIC_GEN
*$
.SUBCKT NAND3_BASIC_GEN A B C Y PARAMS: VDD=1 VSS=0 VTHRESH=0.5 
E_ABMGATE    YINT 0 VALUE {{IF(V(A) > {VTHRESH}  &  
+ V(B) > {VTHRESH} &
+ V(C) > {VTHRESH},{VSS},{VDD})}}
RINT YINT Y 1
CINT Y 0 1n
.ENDS NAND3_BASIC_GEN
*$
.SUBCKT NAND4_BASIC_GEN A B C D Y PARAMS: VDD=1 VSS=0 VTHRESH=0.5 
E_ABMGATE    YINT 0 VALUE {{IF(V(A) > {VTHRESH}  &  
+ V(B) > {VTHRESH} &
+ V(C) > {VTHRESH} &
+ V(D) > {VTHRESH},{VSS},{VDD})}}
RINT YINT Y 1
CINT Y 0 1n
.ENDS NAND4_BASIC_GEN
*$
.SUBCKT OR2_BASIC_GEN A B Y PARAMS: VDD=1 VSS=0 VTHRESH=0.5 
E_ABMGATE    YINT 0 VALUE {{IF(V(A) > {VTHRESH}  |  
+ V(B) > {VTHRESH},{VDD},{VSS})}}
RINT YINT Y 1
CINT Y 0 1n
.ENDS OR2_BASIC_GEN
*$
.SUBCKT OR3_BASIC_GEN A B C Y PARAMS: VDD=1 VSS=0 VTHRESH=0.5 
E_ABMGATE    YINT 0 VALUE {{IF(V(A) > {VTHRESH}  |  
+ V(B) > {VTHRESH} |
+ V(C) > {VTHRESH},{VDD},{VSS})}}
RINT YINT Y 1
CINT Y 0 1n
.ENDS OR3_BASIC_GEN
*$
.SUBCKT OR4_BASIC_GEN A B C D Y PARAMS: VDD=1 VSS=0 VTHRESH=0.5 
E_ABMGATE    YINT 0 VALUE {{IF(V(A) > {VTHRESH}  |  
+ V(B) > {VTHRESH} |
+ V(C) > {VTHRESH} |
+ V(D) > {VTHRESH},{VDD},{VSS})}}
RINT YINT Y 1
CINT Y 0 1n
.ENDS OR4_BASIC_GEN
*$
.SUBCKT NOR2_BASIC_GEN A B Y PARAMS: VDD=1 VSS=0 VTHRESH=0.5 
E_ABMGATE    YINT 0 VALUE {{IF(V(A) > {VTHRESH}  |  
+ V(B) > {VTHRESH},{VSS},{VDD})}}
RINT YINT Y 1
CINT Y 0 1n
.ENDS NOR2_BASIC_GEN
*$
.SUBCKT NOR3_BASIC_GEN A B C Y PARAMS: VDD=1 VSS=0 VTHRESH=0.5 
E_ABMGATE    YINT 0 VALUE {{IF(V(A) > {VTHRESH}  |  
+ V(B) > {VTHRESH} |
+ V(C) > {VTHRESH},{VSS},{VDD})}}
RINT YINT Y 1
CINT Y 0 1n
.ENDS NOR3_BASIC_GEN
*$
.SUBCKT NOR4_BASIC_GEN A B C D Y PARAMS: VDD=1 VSS=0 VTHRESH=0.5 
E_ABMGATE    YINT 0 VALUE {{IF(V(A) > {VTHRESH}  |  
+ V(B) > {VTHRESH} |
+ V(C) > {VTHRESH} |
+ V(D) > {VTHRESH},{VSS},{VDD})}}
RINT YINT Y 1
CINT Y 0 1n
.ENDS NOR4_BASIC_GEN
*$
.SUBCKT NOR5_BASIC_GEN A B C D E Y PARAMS: VDD=1 VSS=0 VTHRESH=0.5 
E_ABMGATE YINT 0 VALUE {{IF(V(A) > {VTHRESH}  |  
+ V(B) > {VTHRESH} |
+ V(C) > {VTHRESH} |
+ V(D) > {VTHRESH} |
+ V(E) > {VTHRESH},{VSS},{VDD})}}
RINT YINT Y 1
CINT Y 0 1n
.ENDS NOR5_BASIC_GEN
*$
.SUBCKT NOR6_BASIC_GEN A B C D E F Y PARAMS: VDD=1 VSS=0 VTHRESH=0.5 
E_ABMGATE YINT 0 VALUE {{IF(V(A) > {VTHRESH}  |  
+ V(B) > {VTHRESH} |
+ V(C) > {VTHRESH} |
+ V(D) > {VTHRESH} |
+ V(E) > {VTHRESH} |
+ V(F) > {VTHRESH},{VSS},{VDD})}}
RINT YINT Y 1
CINT Y 0 1n
.ENDS NOR6_BASIC_GEN
*$
.SUBCKT INV_BASIC_GEN A  Y PARAMS: VDD=1 VSS=0 VTHRESH=0.5 
E_ABMGATE    YINT 0 VALUE {{IF(V(A) > {VTHRESH} , 
+ {VSS},{VDD})}}
RINT YINT Y 1
CINT Y 0 1n
.ENDS INV_BASIC_GEN
*$
.SUBCKT XOR2_BASIC_GEN A B Y PARAMS: VDD=1 VSS=0 VTHRESH=0.5 
E_ABMGATE  YINT 0 VALUE {{IF(V(A) > {VTHRESH}  ^  
+ V(B) > {VTHRESH},{VDD},{VSS})}}
RINT YINT Y 1
CINT Y 0 1n
.ENDS XOR2_BASIC_GEN
*$
.SUBCKT XNOR2_BASIC_GEN A B Y PARAMS: VDD=1 VSS=0 VTHRESH=0.5 
E_ABMGATE  YINT 0 VALUE {{IF(V(A) > {VTHRESH}  ^  
+ V(B) > {VTHRESH},{VSS},{VDD})}}
RINT YINT Y 1
CINT Y 0 1n
.ENDS XNOR2_BASIC_GEN
*$
.SUBCKT MUX2_BASIC_GEN A B S Y PARAMS: VDD=1 VSS=0 VTHRESH=0.5 
E_ABMGATE  YINT 0 VALUE {{IF(V(S) > {VTHRESH},  
+ V(B),V(A))}}
RINT YINT Y 1
CINT Y 0 1n
.ENDS MUX2_BASIC_GEN
*$
.SUBCKT INV_DELAY_BASIC_GEN A  Y PARAMS: VDD=1 VSS=0 VTHRESH=0.5 DELAY = 10n 
E_ABMGATE1    YINT1 0 VALUE {{IF(V(A) > {VTHRESH} , 
+ {VDD},{VSS})}}
RINT YINT1 YINT2 1
CINT YINT2 0 {DELAY*1.3}
E_ABMGATE2    YINT3 0 VALUE {{IF(V(YINT2) > {VTHRESH} , 
+ {VSS},{VDD})}}
RINT2 YINT3 Y 1
CINT2 Y 0 1n
.ENDS INV_DELAY_BASIC_GEN
*$
.SUBCKT BUF_DELAY_BASIC_GEN A  Y PARAMS: VDD=1 VSS=0 VTHRESH=0.5 DELAY = 10n 
E_ABMGATE1    YINT1 0 VALUE {{IF(V(A) > {VTHRESH} , 
+ {VDD},{VSS})}}
RINT YINT1 YINT2 1
CINT YINT2 0 {DELAY*1.3}
E_ABMGATE2    YINT3 0 VALUE {{IF(V(YINT2) > {VTHRESH} , 
+ {VDD},{VSS})}}
RINT2 YINT3 Y 1
CINT2 Y 0 1n
.ENDS BUF_DELAY_BASIC_GEN
*$
.SUBCKT BUF_BASIC_GEN A  Y PARAMS: VDD=1 VSS=0 VTHRESH=0.5 
E_ABMGATE    YINT 0 VALUE {{IF(V(A) > {VTHRESH} , 
+ {VDD},{VSS})}}
RINT YINT Y 1
CINT Y 0 1n
.ENDS BUF_BASIC_GEN
*$
.SUBCKT BUFFER_PS A Y PARAMS: vhi=1 vlo=0 vthresh=500e-3
+ tplh=1e-9 tphl=1e-9 tr=1e-9 tf=1e-9
RA A 0 1e11
CA A 0 0.01pF
VS VSUP 0 DC 1
EBUF1 Ypp 0 VALUE={IF(V(A) > ({vthresh}), 1, 0)}
ROUTpp Ypp 0 1e11
XNSW1 OUTp Ypp 0 NSW_PS PARAMS: RONval={(tplh+1e-15)/
+(1e-12*0.693)} VTHval=0.5
XPSW1 OUTp Ypp VSUP PSW_PS PARAMS: RONval={(tphl+1e-15)/
+(1e-12*0.693)} VTHval=0.5
CDEL1 OUTp 0 1pF
ETHRESH Yp 0 VALUE={IF(V(OUTp) > 0.5, 1, 0)}
ROUTp Yp 0 1e11
XNSW2 OUTr Yp 0 NSW_PS PARAMS: RONval={(tf+1e-15)/
+(1e-12*2.3)} VTHval=0.5
XPSW2 OUTr Yp VSUP PSW_PS PARAMS: RONval={(tr+1e-15)
+/(1e-12*2.3)} VTHval=0.5
CDEL2 OUTr 0 1pF
EOUT OUTf 0 VALUE={V(OUTr)*({vhi} - {vlo})+{vlo}}
RDR OUTf Y  1000
RO Y 0 1e11
.ENDS BUFFER_PS
*$
.SUBCKT NSW_PS D G S PARAMS: RONval=10k VTHval=0.7
+ VCHARval=0.01 CGval=0.01pF CDval=0.01pF 
RDDUM D 0 1e11
RSDUM S 0 1e11
RGDUM G 0 1e11
CG G D {CGval}
CD D S {CDval}
GOUT D S VALUE={V(D,S)/(RONval*(1+EXP(-LIMIT(((V(G,S)-VTHval)
+/VCHARval),-80,80))))}
.ENDS NSW_PS
*$
.SUBCKT PSW_PS D G S PARAMS: RONval=10k VTHval=0.7
+ VCHARval=0.01 CGval=0.01pF CDval=0.01pF 
RDDUM D 0 1e11
RSDUM S 0 1e11
RGDUM G 0 1e11
CG G D {CGval}
CD D S {CDval}
GOUT S D VALUE={V(S,D)/(RONval*(1+EXP(-LIMIT(((V(S,G)-VTHval)
+/VCHARval),-80,80))))}
.ENDS PSW_PS
*$
.SUBCKT INV_PS Y A PARAMS: vhi=1 vlo=0 vthresh=500e-3
+ tplh=1e-9 tphl=1e-9 tr=1e-9 tf=1e-9
RA A 0 1e11
CA A 0 0.01pF
VS VSUP 0 DC 1
EINV1 Ypp 0 VALUE={IF(V(A) > ({vthresh}), 0, 1)}
ROUTpp Ypp 0 1e11
XNSW1 OUTp Ypp 0 NSW_PS PARAMS: RONval={(tplh+1e-15)/
+(1e-12*0.693)} VTHval=0.5
XPSW1 OUTp Ypp VSUP PSW_PS PARAMS: RONval={(tphl+1e-15)/
+(1e-12*0.693)} VTHval=0.5
CDEL1 OUTp 0 1pF
ETHRESH Yp 0 VALUE={IF(V(OUTp) > 0.5, 1, 0)}
ROUTp Yp 0 1e11
XNSW2 OUTr Yp 0 NSW_PS PARAMS: RONval={(tf+1e-15)/
+(1e-12*2.3)} VTHval=0.5
XPSW2 OUTr Yp VSUP PSW_PS PARAMS: RONval={(tr+1e-15)/
+(1e-12*2.3)} VTHval=0.5
CDEL2 OUTr 0 1pF
EOUT OUTf 0 VALUE={V(OUTr)*({vhi} - {vlo})+{vlo}}
RDR OUTf Y  1000
RO Y 0 1e11
.ENDS INV_PS
*$
.SUBCKT OR4_PS Y A B C D PARAMS: vhi=1 vlo=0 vthresh=500e-3
+ tplh=1e-9 tphl=1e-9 tr=1e-9 tf=1e-9
RA A 0 1e11
CA A 0 0.01pF
RB B 0 1e11
CB B 0 0.01pF
RC C 0 1e11
CC C 0 0.01pF
RD D 0 1e11
CD D 0 0.01pF
VS VSUP 0 DC 1
EOR4 Ypp 0 VALUE={IF(V(A) > {vthresh} | V(B) > {vthresh}
+  | V(C) > {vthresh}  | V(D) > {vthresh}, 1, 0)}
ROUTpp Ypp 0 1e11
XNSW1 OUTp Ypp 0 NSW_PS PARAMS: RONval={(tplh+1e-15)/