*$
* TPS65917-Q1
*****************************************************************************
* (C) Copyright 2015 Texas Instruments Incorporated. All rights reserved.                                            
*****************************************************************************
** This model is designed as an aid for customers of Texas Instruments.
** TI and its licensors and suppliers make no warranties, either expressed
** or implied, with respect to this model, including the warranties of 
** merchantability or fitness for a particular purpose.  The model is
** provided solely on an "as is" basis.  The entire risk as to its quality
** and performance is with the customer
*****************************************************************************
*
* This model is subject to change without notice. Texas Instruments
* Incorporated is not responsible for updating this model.
*
*****************************************************************************
*
** Released by: WEBENCH Design Center, Texas Instruments Inc.
* Part: TPS65917-Q1_SMPS12
* Date: 06JAN2015
* Model Type: TRANSIENT
* Simulator: PSPICE
* Simulator Version: 16.2.0.p001
* EVM Order Number: N/A
* EVM Users Guide: N/A
* Datasheet: SLVSCO4
*
* Model Version: Final 1.00
*
*****************************************************************************
*
* Updates:
*
* Final 1.00
* Release to Web.
*
*****************************************************************************

.SUBCKT TPS65917-Q1_SMPS12_TRANS DVS ECO_MODE_1 SMPS1_2_FB SMPS1_2_FB_GND
+  SMPS1_GND SMPS1_IN SMPS1_SW SMPS2_GND SMPS2_IN SMPS2_SW SMPS_EN1_2 VSEL_1_2  
+ PARAMS: FSW=2.2E6 SS=0
V_V3         RANGE SMPS1_GND 0
V_U4_VRAMP1         U4_RAMP1 SMPS1_GND  
+PULSE 0 1 {(1/(6*FSW))} {(1/FSW)-0.2ns} 0.1ns 0.1ns {1/FSW}
E_U4_ABM10         CLK_1 0 VALUE { if( V(SMPS_EN1_2)>1.2 , V(U4_SYNC1) ,0)  
+     }
V_U4_VRAMP2         U4_RAMP2 SMPS2_GND  
+PULSE 0 1 {(4/(6*FSW))} {(1/FSW)-0.2ns} 0.1ns 0.1ns {1/FSW}
R_U4_R1         SMPS1_IN U4_N16802140  10 TC=0,0 
E_U4_ABM18         U4_N16799533 0 VALUE { if( V(SMPS_EN1_2)>1.2 , V(U4_RAMP2)
+  ,0)  
+     }
E_U4_ABM12         CLK_2 0 VALUE { if( V(PFM_EN_1_2)>0.5 , V(U4_N16827853) ,0) 
+  
+     }
V_U4_Vsync2         U4_SYNC2 SMPS2_GND  
+PULSE 0 1 {(4/(6*FSW))} 1n 1n {(1/(6*FSW))-0.2n} {1/FSW}
E_U4_ABM17         U4_N16827853 0 VALUE { if( V(SMPS_EN1_2)>1.2 , V(U4_SYNC2)
+  ,0)  
+     }
E_U4_ABM7         RAMP_1 0 VALUE { if( V(SMPS_EN1_2)>1.2 , V(U4_N16802140)
+  *V(U4_RAMP1) /5,0)    }
V_U4_Vsync1         U4_SYNC1 SMPS1_GND  
+PULSE 0 1 {(1/(6*FSW))} 1n 1n {(1/(6*FSW))-0.2n} {1/FSW}
E_U4_ABM14         RAMP_2 0 VALUE { if( V(PFM_EN_1_2)>0.5, V(U4_N16799533) *
+  V(SMPS2_IN) /5 ,0)    }
C_U4_C1         SMPS2_GND U4_N16802140  1u  TC=0,0 
C_U1_U1_C1         SMPS1_GND U1_U1_N48124  1n  TC=0,0 
V_U1_U1_V2         U1_U1_N01836 SMPS1_GND 1.2
X_U1_U1_U2         SMPS_EN1_2 U1_U1_N01836 U1_U1_N01850 COMP_BASIC_GEN PARAMS:
+  VDD=1 VSS=0 VTHRESH=0.5
D_U1_U1_D33         U1_U1_SS SMPS1_IN D_D1 
V_U1_U1_V1         U1_U1_N00772 U1_U1_N47325 2.5
E_U1_U1_E2         U1_U1_N47325 SMPS1_GND U1_U1_N48124 SMPS1_GND -200m
X_U1_U1_S4    U1_EN_INT_N SMPS1_GND U1_U1_SS SMPS1_GND
+  TPS65917-Q1_SMPS12_EN_UVLO_SS_U1_U1_S4 
X_U1_U1_U4         EN_MULT U1_EN_INT_N INV_BASIC_GEN PARAMS: VDD=1 VSS=0
+  VTHRESH=500E-3
X_U1_U1_U34         U1_U1_UVLO U1_U1_N01850 EN_MULT AND2_BASIC_GEN PARAMS:
+  VDD=1 VSS=0 VTHRESH=500E-3
X_U1_U1_U8         U1_VREF U1_U1_N2245642 U1_U1_N2245664 PFM_EN_1_2
+  COMPHYS2_BASIC_GEN PARAMS: VDD=1 VSS=0 VTHRESH=0.5 T=10
V_U1_U1_V6         U1_U1_N2245642 SMPS1_GND 388mV
C_U1_U1_C3         U1_U1_SS SMPS1_2_FB_GND  80p IC={0.4*SS} 
E_U1_U1_E3         U1_U1_N2245564 SMPS1_GND U1_U1_SS SMPS1_2_FB_GND 1
D_U1_U1_D34         SMPS1_2_FB_GND U1_U1_SS D_D1 
E_U1_U1_ABM4         U1_VREF 0 VALUE { if(V(U1_U1_N2245564)
+  >0.4,0.4,V(U1_U1_N2245564))    }
R_U1_U1_R1         U1_U1_UVLO U1_U1_N48124  1 TC=0,0 
X_U1_U1_U1         SMPS1_IN U1_U1_N00772 U1_U1_UVLO COMP_BASIC_GEN PARAMS:
+  VDD=1 VSS=0 VTHRESH=0.5
V_U1_U1_V8         U1_U1_N2245664 SMPS1_GND 2mV
G_U1_U1_ABMII3         SMPS1_IN U1_U1_SS VALUE { V(EN_MULT) * 75n    }
X_U1_U7_U8         I_LO_1 U1_U7_N16778793 U1_U7_N167772623 U1_U7_N16777053
+  COMPHYS2_BASIC_GEN PARAMS: VDD=1 VSS=0 VTHRESH=0.5 T=10
X_U1_U7_U22         U1_U7_N16777131 U1_U7_N16777053 U1_OCP_GATE N16777467
+  SRLATCHRHP_BASIC_GEN PARAMS: VDD=1 VSS=0 VTHRESH=0.5
X_U1_U7_U9         U1_U7_N16777228 I_LO_1 U1_U7_N16777234 COMP_BASIC_GEN
+  PARAMS: VDD=1 VSS=0 VTHRESH=0.5
C_U1_U7_C1         SMPS1_GND U1_U7_N16780222  1.414n  TC=0,0 
X_U1_U7_U10         U1_I_LS U1_U7_N16779957 U1_U7_N167773153 U1_U7_N16779920
+  COMPHYS2_BASIC_GEN PARAMS: VDD=1 VSS=0 VTHRESH=0.5 T=10
X_U1_U7_U5         CLK_1 U1_U7_N16780222 U1_U7_N16780386 OR2_BASIC_GEN PARAMS:
+  VDD=1 VSS=0 VTHRESH=500E-3
V_U1_U7_V4         U1_U7_N16777228 SMPS1_GND 4.2
V_U1_U7_V5         U1_U7_N16778793 SMPS1_GND 4.5
V_U1_U7_V11         U1_U7_N167773153 SMPS1_GND 2mVdc
E_U1_U7_E1         U1_OCP_LS SMPS1_GND U1_U7_N16778386 SMPS1_GND 1
X_U1_U7_U23         U1_U7_N16777053 U1_U7_N16777131 U1_OCP_MODE N16777712
+  SRLATCHRHP_BASIC_GEN PARAMS: VDD=1 VSS=0 VTHRESH=0.5
R_U1_U7_R1         U1_OCP_LS U1_U7_N16780222  140 TC=0,0 
V_U1_U7_V6         U1_U7_N16779957 SMPS1_GND 600m
X_U1_U7_U16         CLK_1 U1_U7_N16777234 U1_U7_N16777131 AND2_BASIC_GEN
+  PARAMS: VDD=1 VSS=0 VTHRESH=500E-3
X_U1_U7_U27         U1_U7_N16779920 U1_U7_N16780386 U1_U7_N16778386 N16780571
+  SRLATCHRHP_BASIC_GEN PARAMS: VDD=1 VSS=0 VTHRESH=0.5
V_U1_U7_V10         U1_U7_N167772623 SMPS1_GND 5mVdc
E_U1_U2_ABM14         U1_FB_INT 0 VALUE { if( V(RANGE)>0.5 , V(U1_U2_N59465)
+  ,V(U1_U2_N59369))    }
G_U1_U2_ABM2I1         SMPS1_GND U1_U2_N2222586 VALUE { LIMIT((V(VSEL_1_2) -
+  V(U1_U2_N2222712)) , 25u , -25u)    }
E_U1_U2_ABM4         U1_U2_N52942 0 VALUE {
+  if(V(U1_U2_N52768)-16<0,V(U1_U2_N52768),V(U1_U2_N52768)-16)    }
R_U1_U2_R3         SMPS1_2_FB_GND U1_U2_N59465  150k  
E_U1_U2_ABM18         U1_U2_VSEL_INT 0 VALUE { if(V(DVS) >0.5,
+  V(U1_U2_N2222712) ,V(VSEL_1_2))    }
X_U1_U2_S4    U1_U2_VOUT_3 SMPS1_GND U1_U2_N55281 U1_U2_N55410
+  TPS65917-Q1_SMPS_DUAL_RS_U1_U2_S4 
R_U1_U2_R1         U1_U2_N59369 U1_U2_N58443  30k  
E_U1_U2_ABM13         U1_U2_VOUT_1 0 VALUE { if(V(U1_U2_N53606)-1>0,0,1)    }
E_U1_U2_ABM9         U1_U2_VOUT_3 0 VALUE { if(V(U1_U2_N53263)-4>0,0,1)    }
E_U1_U2_ABM3         U1_U2_VOUT_6 0 VALUE { if(V(U1_U2_N00069)-32>0,0,1)    }
E_U1_U2_ABM2         U1_U2_N52768 0 VALUE {
+  if(V(U1_U2_N00069)-32<0,V(U1_U2_N00069),V(U1_U2_N00069)-32)    }
C_U1_U2_C1         SMPS1_GND U1_U2_N2222586  10n  TC=0,0 
E_U1_U2_ABM12         U1_U2_N53800 0 VALUE {
+  if(V(U1_U2_N53606)-1<0,V(U1_U2_N53606),V(U1_U2_N53606)-1)    }
R_U1_U2_R4         SMPS1_GND U1_U2_N2222586  1G  
E_U1_U2_ABM5         U1_U2_VOUT_5 0 VALUE { if(V(U1_U2_N52768)-16>0,0,1)    }
E_U1_U2_E1         U1_U2_N2222712 SMPS1_GND U1_U2_N2222586 SMPS1_GND 1
E_U1_U2_ABM8         U1_U2_N53427 0 VALUE {
+  if(V(U1_U2_N53263)-4<0,V(U1_U2_N53263),V(U1_U2_N53263)-4)    }
X_U1_U2_S7    U1_U2_VOUT_6 SMPS1_GND U1_U2_N55704 U1_U2_N58443
+  TPS65917-Q1_SMPS_DUAL_RS_U1_U2_S7 
X_U1_U2_S6    U1_U2_VOUT_5 SMPS1_GND U1_U2_N55551 U1_U2_N55704
+  TPS65917-Q1_SMPS_DUAL_RS_U1_U2_S6 
E_U1_U2_ABM11         U1_U2_VOUT_2 0 VALUE { if(V(U1_U2_N53427)-2>0,0,1)    }
E_U1_U2_ABM6         U1_U2_N53263 0 VALUE {
+  if(V(U1_U2_N52942)-8<0,V(U1_U2_N52942),V(U1_U2_N52942)-8)    }
E_U1_U2_ABM1         U1_U2_N00069 0 VALUE { if(V(RANGE)
+  >0.5,(10*((V(U1_U2_VSEL_INT)/0.4)-1))-11.995,(20*((V(U1_U2_VSEL_INT)/0.4)-1))-1.995)
+   
+     }
E_U1_U2_ABM15         U1_U2_VOUT_0 0 VALUE { if(V(U1_U2_N53800)-0.5>0,0,1)    }
X_U1_U2_S5    U1_U2_VOUT_4 SMPS1_GND U1_U2_N55410 U1_U2_N55551
+  TPS65917-Q1_SMPS_DUAL_RS_U1_U2_S5 
R_U1_U2_R2         U1_U2_N59465 U1_U2_N59369  150k  
E_U1_U2_ABM10         U1_U2_N53606 0 VALUE {
+  if(V(U1_U2_N53427)-2<0,V(U1_U2_N53427),V(U1_U2_N53427)-2)    }
X_U1_U2_S1    U1_U2_VOUT_0 SMPS1_GND SMPS1_2_FB U1_U2_N55059
+  TPS65917-Q1_SMPS_DUAL_RS_U1_U2_S1 
E_U1_U2_ABM7         U1_U2_VOUT_4 0 VALUE { if(V(U1_U2_N52942)-8>0,0,1)    }
X_U1_U2_S2    U1_U2_VOUT_1 SMPS1_GND U1_U2_N55059 U1_U2_N55164
+  TPS65917-Q1_SMPS_DUAL_RS_U1_U2_S2 
X_U1_U2_S3    U1_U2_VOUT_2 SMPS1_GND U1_U2_N55164 U1_U2_N55281
+  TPS65917-Q1_SMPS_DUAL_RS_U1_U2_S3 
D_U1_U3_D5         U1_U3_N16791855 U1_U3_N16808005 D_D1 
R_U1_U3_R14         U1_U3_N34913 U1_U3_N34843  200k  
R_U1_U3_R9         SMPS1_GND U1_U3_N2  126Meg  
E_U1_U3_GAIN2         U1_U3_N34843 0 VALUE {10 * V(U1_U3_N3)}
X_U1_U3_S5    U1_U3_N16786219 SMPS1_GND U1_U3_N16786499 U1_U3_N16786609
+  TPS65917-Q1_SMPS_DUAL_EA_U1_U3_S5 
E_U1_U3_ABM8         U1_U3_N16786219 0 VALUE { IF(V(SA_1)>0.5 ,1, 0)    }
G_U1_U3_G3         SMPS1_GND U1_U3_N16791855 U1_U3_N16823751 SMPS1_GND 1
R_U1_U3_R16         SMPS1_GND U1_U3_N3  200k  
R_U1_U3_R11         U1_U3_N16779046 U1_U3_N16809904  200k  
D_U1_U3_D6         SMPS1_GND U1_U3_N16791855 D_D1 
R_U1_U3_R17         SMPS1_GND U1_U3_N16791855  1  
C_U1_U3_C7         U1_U3_N16779046 U1_U3_N16809904  6.5p  
R_U1_U3_R15         SMPS1_GND U1_U3_N34913  50k  
E_U1_U3_SUM1         U1_U3_N16823751 0 VALUE 
+ {V(U1_U3_N16779046)+V(U1_U3_N34913)}
C_U1_U3_C9         SMPS1_GND U1_U3_N3  0.5p  
D_U1_U3_D2         SMPS1_GND U1_U3_N2 D_D1 
R_U1_U3_R12         SMPS1_GND U1_U3_N16779046  50k  
C_U1_U3_C8         SMPS1_GND U1_U3_N2  0.5p  
C_U1_U3_C10         U1_U3_N34913 U1_U3_N34843  5p  
E_U1_U3_ABM9         U1_U3_N16854590 0 VALUE { IF(V(SA_1)<0.5 & V(3OR2PHZ)>0.5
+  & V(MULTIPHASE) < 0.5,0 ,1)    }
E_U1_U3_ABM11         EA_OUT_1 0 VALUE { IF(V(M_SZ_1) > 0.5, V(U1_U3_N16791855)
+  ,V(SMPS1_GND))    }
E_U1_U3_GAIN1         U1_U3_N16809904 0 VALUE {10 * V(U1_U3_N2)}
X_U1_U3_S3    U1_U3_N16854472 SMPS1_GND U1_U3_N16853326 U1_U3_N16853104
+  TPS65917-Q1_SMPS_DUAL_EA_U1_U3_S3 
V_U1_U3_V1         U1_U3_N16802065 SMPS1_GND -0.4Vdc
X_U1_U3_S4    U1_U3_N16854590 SMPS1_GND U1_U3_N16853104 U1_U3_N16786499
+  TPS65917-Q1_SMPS_DUAL_EA_U1_U3_S4 
G_U1_U3_G2         SMPS1_GND U1_U3_N3 SMPS1_GND U1_FB_INT {1/200k}
E_U1_U3_ABM10         U1_U3_N16854472 0 VALUE { IF(V(SA_1)<0.5 & V(3OR2PHZ)<0.5
+  & V(MULTIPHASE) < 0.5,0 ,1)    }
C_U1_U3_C5         SMPS1_GND U1_U3_N16786609  80p  
R_U1_U3_R10         U1_U3_N16853326 U1_U3_N2  200k  
G_U1_U3_ABM3I1         SMPS1_GND U1_U3_N2 VALUE { (V(U1_VREF)  
+ -V(U1_FB_INT))  
+ *25u*V(EN_MULT)  }
D_U1_U3_D4         U1_U3_N3 SMPS1_GND D_D1 
E_U1_U3_E2         U1_U3_N16808005 SMPS1_GND SMPS1_IN SMPS1_GND 0.2
D_U1_U3_D1         U1_U3_N2 U1_U3_N16796191 D_D1 
E_U1_U3_E1         U1_U3_N16796191 SMPS1_GND SMPS1_IN SMPS1_GND 0.2
D_U1_U3_D3         U1_U3_N16802065 U1_U3_N3 D_D1 
C_U1_U5_C13         SMPS1_GND U1_U5_N16705109  1n  
E_U1_U5_ABM6         U1_U5_HO 0 VALUE { IF(V(U1_U5_N16705109)>0.5,
+  V(U1_U5_N03457), 0)    }
X_U1_U5_S1    U1_U5_HO SMPS1_GND U1_U5_N16706232 U1_U5_N16706214
+  TPS65917-Q1_SMPS_DUAL_DRIVER_U1_U5_S1 
X_U1_U5_U17         U1_PWM U1_OCP_GATE U1_U5_N16669492 AND2_BASIC_GEN PARAMS:
+  VDD=1 VSS=0 VTHRESH=500E-3
X_U1_U5_U16         U1_U5_N03471 U1_U5_N03465 BUF_DELAY_BASIC_GEN PARAMS: VDD=1
+  VSS=0 VTHRESH=0.5 DELAY=5n
X_U1_U5_U13         U1_U5_N03415 U1_U5_PULSE U1_U5_N03457 AND2_BASIC_GEN
+  PARAMS: VDD=1 VSS=0 VTHRESH=500E-3
X_U1_U5_H2    U1_U5_N16706286 U1_U5_N16706232 U1_U5_I_HS SMPS1_GND
+  TPS65917-Q1_SMPS_DUAL_DRIVER_U1_U5_H2 
X_U1_U5_S2    U1_U5_LO SMPS1_GND U1_U5_N16706214 U1_U5_N16706240
+  TPS65917-Q1_SMPS_DUAL_DRIVER_U1_U5_S2 
X_U1_U5_U25         U1_U5_PULSE U1_U5_N03471 INV_BASIC_GEN PARAMS: VDD=1 VSS=0
+  VTHRESH=500E-3
R_U1_U5_R25         U1_U5_N167770691 U1_U5_N16670888  1  
C_U1_U5_C16         SMPS1_GND U1_U5_N16670888  1n  
D_U1_U5_D28         U1_U5_N16706214 U1_U5_N16706232 D_D1 
E_U1_U5_ABM3         U1_U5_LO 0 VALUE { IF(V(U1_U5_N109)>0.5, 0,
+  V(U1_U5_N03507))    }
D_U1_U5_D29         U1_U5_N16706240 U1_U5_N16706214 D_D1 
X_U1_U5_U15         U1_U5_PULSE U1_U5_N03415 BUF_DELAY_BASIC_GEN PARAMS: VDD=1
+  VSS=0 VTHRESH=0.5 DELAY=5n
E_U1_U5_ABM4         U1_U5_N167770691 0 VALUE { IF(V(U1_PFM_SEL)>0.5,
+  V(U1_PFM), V(U1_U5_N16669492))    }
X_U1_U5_H3    U1_U5_N16706214 SMPS1_SW I_LO_1 SMPS1_GND
+  TPS65917-Q1_SMPS_DUAL_DRIVER_U1_U5_H3 
X_U1_U5_H1    U1_U5_N16706240 SMPS1_GND U1_I_LS SMPS1_GND
+  TPS65917-Q1_SMPS_DUAL_DRIVER_U1_U5_H1 
X_U1_U5_U6         U1_U5_N16670888 U1_OCP_LS U1_U5_PULSE OR2_BASIC_GEN PARAMS:
+  VDD=1 VSS=0 VTHRESH=500E-3
X_U1_U5_U5         U1_U5_N108 U1_LS_ODB U1_U5_N109 OR2_BASIC_GEN PARAMS: VDD=1
+  VSS=0 VTHRESH=500E-3
R_U1_U5_R22         EN_MULT U1_U5_N16705109  1  
E_U1_U5_E1         U1_U5_N16706286 SMPS1_GND SMPS1_IN SMPS1_GND 1
X_U1_U5_U14         U1_U5_N03465 U1_U5_N03471 U1_U5_N03507 AND2_BASIC_GEN
+  PARAMS: VDD=1 VSS=0 VTHRESH=500E-3
X_U1_U5_U26         U1_U5_N16705109 U1_U5_N108 INV_BASIC_GEN PARAMS: VDD=1
+  VSS=0 VTHRESH=500E-3
X_U1_U4_U1         U1_U4_N16774563 EA_OUT_1 U1_U4_N16777320 COMP_BASIC_GEN
+  PARAMS: VDD=1 VSS=0 VTHRESH=0.5
E_U1_U4_SUM3         U1_U4_N16774563 0 VALUE {V(RAMP_OFFSET1)+V(RAMP_1)}
X_U1_U4_U10         U1_U4_N16777320 U1_PWM INV_BASIC_GEN PARAMS: VDD=1 VSS=0
+  VTHRESH=500E-3
X_U1_U6_U6         U1_FB_INT U1_U6_N16781840 U1_U6_N167774583 U1_U6_N16784372
+  COMPHYS2_BASIC_GEN PARAMS: VDD=1 VSS=0 VTHRESH=0.5 T=10
X_U1_U6_U13         U1_PFM U1_U6_N16839029 INV_BASIC_GEN PARAMS: VDD=1 VSS=0
+  VTHRESH=500E-3
X_U1_U6_U15         U1_PFM_SEL U1_U6_S_I U1_LS_ODB AND2_BASIC_GEN PARAMS: VDD=1
+  VSS=0 VTHRESH=500E-3
X_U1_U6_U18         ECO_MODE_1 U1_U6_N16775850 U1_U6_PFM_MODE U1_PFM_SEL
+  AND3_BASIC_GEN PARAMS: VDD=1 VSS=0 VTHRESH=500E-3
C_U1_U6_C15         U1_U6_N16817072 SMPS1_GND  20pF  
X_U1_U6_U10         U1_U6_N16784372 U1_U6_N16786921 INV_BASIC_GEN PARAMS: VDD=1
+  VSS=0 VTHRESH=500E-3
V_U1_U6_V19         U1_U6_N167774583 SMPS1_GND 2mV
X_U1_U6_U27         U1_U6_N16776342 U1_U6_N16896920 INV_BASIC_GEN PARAMS: VDD=1
+  VSS=0 VTHRESH=500E-3
X_U1_U6_U16         MULTIPHASE U1_U6_N16780499 INV_BASIC_GEN PARAMS: VDD=1
+  VSS=0 VTHRESH=500E-3
X_U1_U6_U21         U1_U6_N16775464 U1_U6_N16775272 U1_PFM N16834722
+  SRLATCHRHP_BASIC_GEN PARAMS: VDD=1 VSS=0 VTHRESH=0.5
X_U1_U6_U8         SMPS1_GND I_LO_1 U1_U6_N16809488 U1_U6_N16775398
+  COMPHYS2_BASIC_GEN PARAMS: VDD=1 VSS=0 VTHRESH=0.5 T=10
X_U1_U6_U3         U1_U6_N16793443 I_LO_1 U1_U6_S_I COMP_BASIC_GEN PARAMS:
+  VDD=1 VSS=0 VTHRESH=0.5
X_U1_U6_U9         U1_U6_N16775434 U1_U6_N16817072 U1_U6_N16775190
+  COMP_BASIC_GEN PARAMS: VDD=1 VSS=0 VTHRESH=0.5
X_U1_U6_U11         U1_U6_N16775504 U1_U6_N16775430 INV_BASIC_GEN PARAMS: VDD=1
+  VSS=0 VTHRESH=500E-3
X_U1_U6_U17         U1_U6_N16775394 U1_U6_S_I U1_U6_N16775464 AND2_BASIC_GEN
+  PARAMS: VDD=1 VSS=0 VTHRESH=500E-3
V_U1_U6_V14         U1_U6_N110 SMPS1_GND 392mV
V_U1_U6_V20         U1_U6_N16896924 SMPS1_GND 0.7
X_U1_U6_U25         U1_U6_N16896816 U1_U6_N16896924 U1_U6_N16776342
+  COMP_BASIC_GEN PARAMS: VDD=1 VSS=0 VTHRESH=0.5
X_U1_U6_U19         U1_U6_N16780499 PFM_EN_1_2 U1_U6_N16775850 AND2_BASIC_GEN
+  PARAMS: VDD=1 VSS=0 VTHRESH=500E-3
X_U1_U6_U20         U1_U6_N16775190 U1_U6_N16776108 U1_U6_N16775272 N16833393
+  SRLATCHRHP_BASIC_GEN PARAMS: VDD=1 VSS=0 VTHRESH=0.5
R_U1_U6_R22         U1_U6_N16775590 U1_U6_N16775434  320k  
V_U1_U6_V12         U1_U6_N16781840 SMPS1_GND 401mV
C_U1_U6_C1         SMPS1_GND U1_U6_N16896816  1p  
V_U1_U6_V16         U1_U6_N16793443 SMPS1_GND 2mV
D_U1_U6_D29         U1_U6_N16896816 SMPS1_IN D_D1 
X_U1_U6_S1    U1_U6_N16896864 SMPS1_GND U1_U6_N16896816 SMPS1_GND
+  TPS65917-Q1_SMPS_DUAL_PFM_U1_U6_S1 
X_U1_U6_U14         U1_U6_N16775398 PFM_EN_1_2 U1_U6_N16921597 AND2_BASIC_GEN
+  PARAMS: VDD=1 VSS=0 VTHRESH=500E-3
X_U1_U6_U2         U1_U6_N16776084 I_LO_1 U1_U6_N16776108 COMP_BASIC_GEN
+  PARAMS: VDD=1 VSS=0 VTHRESH=0.5
X_U1_U6_U24         U1_U6_N16896981 U1_U6_N16896979 one_shot PARAMS:  T=20  
E_U1_U6_GAIN1         U1_U6_N16830821 0 VALUE {0.2 * V(SMPS1_SW)}
X_U1_U6_U1         U1_FB_INT U1_U6_N16790109 U1_U6_N16802015 COMP_BASIC_GEN
+  PARAMS: VDD=1 VSS=0 VTHRESH=0.5
V_U1_U6_V13         U1_U6_N16790109 SMPS1_GND 404mV
X_U1_U6_U23         U1_U6_N16786921 U1_U6_N16802015 U1_U6_N16775394 N16838200
+  SRLATCHRHP_BASIC_GEN PARAMS: VDD=1 VSS=0 VTHRESH=0.5
X_U1_U6_U26         U1_U6_N16896878 EN_MULT U1_U6_N16896864 AND2_BASIC_GEN
+  PARAMS: VDD=1 VSS=0 VTHRESH=500E-3
X_U1_U6_S8    U1_PFM SMPS1_GND SMPS1_IN U1_U6_N16775590
+  TPS65917-Q1_SMPS_DUAL_PFM_U1_U6_S8 
X_U1_U6_U4         U1_U6_N16775430 U1_OCP_MODE U1_U6_N16905809 OR2_BASIC_GEN
+  PARAMS: VDD=1 VSS=0 VTHRESH=500E-3
X_U1_U6_U28         U1_U6_N16921597 U1_U6_N16926573 U1_U6_N16896981 N16928148
+  SRLATCHRHP_BASIC_GEN PARAMS: VDD=1 VSS=0 VTHRESH=0.5
V_U1_U6_V18         U1_U6_N16776084 SMPS1_GND 15mV
C_U1_U6_C14         SMPS1_GND U1_U6_N16775434  15pF  
X_U1_U6_U29         CLK_1 U1_U6_N16926573 one_shot PARAMS:  T=20  
X_U1_U6_U7         U1_FB_INT U1_U6_N110 U1_U6_N167774140 U1_U6_N16775504
+  COMPHYS2_BASIC_GEN PARAMS: VDD=1 VSS=0 VTHRESH=0.5 T=10
V_U1_U6_V15         U1_U6_N167774140 SMPS1_GND 4mV
R_U1_U6_R23         U1_U6_N16896920 U1_U6_N16896878  1  
C_U1_U6_C13         SMPS1_GND U1_U6_N16896878  1n  
X_U1_U6_S7    U1_U6_N16839029 SMPS1_GND U1_U6_N16775434 SMPS1_GND
+  TPS65917-Q1_SMPS_DUAL_PFM_U1_U6_S7 
X_U1_U6_U22         U1_U6_N16776342 U1_U6_N16905809 U1_U6_PFM_MODE N16836600
+  SRLATCHRHP_BASIC_GEN PARAMS: VDD=1 VSS=0 VTHRESH=0.5
R_U1_U6_R24         U1_U6_N16830821 U1_U6_N16817072  270k  
G_U1_U6_ABMII1         SMPS1_IN U1_U6_N16896816 VALUE { V(U1_U6_N16896979)*10u 
+    }
V_U1_U6_V17         U1_U6_N16809488 SMPS1_GND 8mV
V_V1         3OR2PHZ SMPS1_GND 0Vdc
X_U2_U14         U2_EN_INT MULTIPHASE U2_N78868 AND2_BASIC_GEN PARAMS: VDD=1
+  VSS=0 VTHRESH=500E-3
X_U2_U4_U1         U2_U4_N16774563 U2_N16777859 U2_U4_N16777320 COMP_BASIC_GEN
+  PARAMS: VDD=1 VSS=0 VTHRESH=0.5
E_U2_U4_SUM3         U2_U4_N16774563 0 VALUE {V(RAMP_OFFSET2)+V(RAMP_2)}
X_U2_U4_U10         U2_U4_N16777320 U2_PWM INV_BASIC_GEN PARAMS: VDD=1 VSS=0
+  VTHRESH=500E-3
X_U2_U7_U8         I_LO_2 U2_U7_N16778793 U2_U7_N167772623 U2_U7_N16777053
+  COMPHYS2_BASIC_GEN PARAMS: VDD=1 VSS=0 VTHRESH=0.5 T=10
X_U2_U7_U22         U2_U7_N16777131 U2_U7_N16777053 U2_OCP_GATE N16777467
+  SRLATCHRHP_BASIC_GEN PARAMS: VDD=1 VSS=0 VTHRESH=0.5
X_U2_U7_U9         U2_U7_N16777228 I_LO_2 U2_U7_N16777234 COMP_BASIC_GEN
+  PARAMS: VDD=1 VSS=0 VTHRESH=0.5
C_U2_U7_C1         SMPS2_GND U2_U7_N16780222  1.414n  TC=0,0 
X_U2_U7_U10         U2_I_LS U2_U7_N16779957 U2_U7_N167773153 U2_U7_N16779920
+  COMPHYS2_BASIC_GEN PARAMS: VDD=1 VSS=0 VTHRESH=0.5 T=10
X_U2_U7_U5         CLK_2 U2_U7_N16780222 U2_U7_N16780386 OR2_BASIC_GEN PARAMS:
+  VDD=1 VSS=0 VTHRESH=500E-3
V_U2_U7_V4         U2_U7_N16777228 SMPS2_GND 4.2
V_U2_U7_V5         U2_U7_N16778793 SMPS2_GND 4.5
V_U2_U7_V11         U2_U7_N167773153 SMPS2_GND 2mVdc
E_U2_U7_E1         U2_OCP_LS SMPS2_GND U2_U7_N16778386 SMPS2_GND 1
X_U2_U7_U23         U2_U7_N16777053 U2_U7_N16777131 U2_OCP_MODE N16777712
+  SRLATCHRHP_BASIC_GEN PARAMS: VDD=1 VSS=0 VTHRESH=0.5
R_U2_U7_R1         U2_OCP_LS U2_U7_N16780222  140 TC=0,0 
V_U2_U7_V6         U2_U7_N16779957 SMPS2_GND 600m
X_U2_U7_U16         CLK_2 U2_U7_N16777234 U2_U7_N16777131 AND2_BASIC_GEN
+  PARAMS: VDD=1 VSS=0 VTHRESH=500E-3
X_U2_U7_U27         U2_U7_N16779920 U2_U7_N16780386 U2_U7_N16778386 N16780571
+  SRLATCHRHP_BASIC_GEN PARAMS: VDD=1 VSS=0 VTHRESH=0.5
V_U2_U7_V10         U2_U7_N167772623 SMPS2_GND 5mVdc
E_U2_ABM1         U2_N16777859 0 VALUE { IF(V(MULTIPHASE)>0.5, V(EA_OUT_1),
+  -0.01)  
+     }
C_U2_U5_C13         SMPS2_GND U2_U5_N16705109  1n  
E_U2_U5_ABM6         U2_U5_HO 0 VALUE { IF(V(U2_U5_N16705109)>0.5,
+  V(U2_U5_N03457), 0)    }
X_U2_U5_S1    U2_U5_HO SMPS2_GND U2_U5_N16706232 U2_U5_N16706214
+  TPS65917-Q1_SMPS_DUAL_DRIVER_U2_U5_S1 
X_U2_U5_U17         U2_PWM U2_OCP_GATE U2_U5_N16669492 AND2_BASIC_GEN PARAMS:
+  VDD=1 VSS=0 VTHRESH=500E-3
X_U2_U5_U16         U2_U5_N03471 U2_U5_N03465 BUF_DELAY_BASIC_GEN PARAMS: VDD=1
+  VSS=0 VTHRESH=0.5 DELAY=5n
X_U2_U5_U13         U2_U5_N03415 U2_U5_PULSE U2_U5_N03457 AND2_BASIC_GEN
+  PARAMS: VDD=1 VSS=0 VTHRESH=500E-3
X_U2_U5_H2    U2_U5_N16706286 U2_U5_N16706232 U2_U5_I_HS SMPS2_GND
+  TPS65917-Q1_SMPS_DUAL_DRIVER_U2_U5_H2 
X_U2_U5_S2    U2_U5_LO SMPS2_GND U2_U5_N16706214 U2_U5_N16706240
+  TPS65917-Q1_SMPS_DUAL_DRIVER_U2_U5_S2 
X_U2_U5_U25         U2_U5_PULSE U2_U5_N03471 INV_BASIC_GEN PARAMS: VDD=1 VSS=0
+  VTHRESH=500E-3
R_U2_U5_R25         U2_U5_N167770691 U2_U5_N16670888  1  
C_U2_U5_C16         SMPS2_GND U2_U5_N16670888  1n  
D_U2_U5_D28         U2_U5_N16706214 U2_U5_N16706232 D_D1 
E_U2_U5_ABM3         U2_U5_LO 0 VALUE { IF(V(U2_U5_N109)>0.5, 0,
+  V(U2_U5_N03507))    }
D_U2_U5_D29         U2_U5_N16706240 U2_U5_N16706214 D_D1 
X_U2_U5_U15         U2_U5_PULSE U2_U5_N03415 BUF_DELAY_BASIC_GEN PARAMS: VDD=1
+  VSS=0 VTHRESH=0.5 DELAY=5n
E_U2_U5_ABM4         U2_U5_N167770691 0 VALUE { IF(V(SMPS2_GND)>0.5,
+  V(SMPS2_GND), V(U2_U5_N16669492))    }
X_U2_U5_H3    U2_U5_N16706214 SMPS2_SW I_LO_2 SMPS2_GND
+  TPS65917-Q1_SMPS_DUAL_DRIVER_U2_U5_H3 
X_U2_U5_H1    U2_U5_N16706240 SMPS2_GND U2_I_LS SMPS2_GND
+  TPS65917-Q1_SMPS_DUAL_DRIVER_U2_U5_H1 
X_U2_U5_U6         U2_U5_N16670888 U2_OCP_LS U2_U5_PULSE OR2_BASIC_GEN PARAMS:
+  VDD=1 VSS=0 VTHRESH=500E-3
X_U2_U5_U5         U2_U5_N108 SMPS2_GND U2_U5_N109 OR2_BASIC_GEN PARAMS: VDD=1
+  VSS=0 VTHRESH=500E-3
R_U2_U5_R22         U2_N78868 U2_U5_N16705109  1  
E_U2_U5_E1         U2_U5_N16706286 SMPS2_GND SMPS2_IN SMPS2_GND 1
X_U2_U5_U14         U2_U5_N03465 U2_U5_N03471 U2_U5_N03507 AND2_BASIC_GEN
+  PARAMS: VDD=1 VSS=0 VTHRESH=500E-3
X_U2_U5_U26         U2_U5_N16705109 U2_U5_N108 INV_BASIC_GEN PARAMS: VDD=1
+  VSS=0 VTHRESH=500E-3
C_U2_U1_C1         SMPS2_GND U2_U1_N48124  1n  TC=0,0 
V_U2_U1_V2         U2_U1_N01836 SMPS2_GND 1.2
X_U2_U1_U2         SMPS_EN1_2 U2_U1_N01836 U2_U1_N01850 COMP_BASIC_GEN PARAMS:
+  VDD=1 VSS=0 VTHRESH=0.5
D_U2_U1_D33         U2_U1_SS SMPS2_IN D_D1 
V_U2_U1_V1         U2_U1_N00772 U2_U1_N47325 2.5
E_U2_U1_E2         U2_U1_N47325 SMPS2_GND U2_U1_N48124 SMPS2_GND -200m
X_U2_U1_S4    U2_EN_INT_N SMPS2_GND U2_U1_SS SMPS2_GND
+  TPS65917-Q1_SMPS12_EN_UVLO_SS_U2_U1_S4 
X_U2_U1_U4         U2_EN_INT U2_EN_INT_N INV_BASIC_GEN PARAMS: VDD=1 VSS=0
+  VTHRESH=500E-3
X_U2_U1_U34         U2_U1_UVLO U2_U1_N01850 U2_EN_INT AND2_BASIC_GEN PARAMS:
+  VDD=1 VSS=0 VTHRESH=500E-3
X_U2_U1_U8         U2_VREF U2_U1_N2245642 U2_U1_N2245664 U2_PFM_EN
+  COMPHYS2_BASIC_GEN PARAMS: VDD=1 VSS=0 VTHRESH=0.5 T=10
V_U2_U1_V6         U2_U1_N2245642 SMPS2_GND 388mV
C_U2_U1_C3         U2_U1_SS SMPS2_GND  80p IC={0.4*SS} 
E_U2_U1_E3         U2_U1_N2245564 SMPS2_GND U2_U1_SS SMPS2_GND 1
D_U2_U1_D34         SMPS2_GND U2_U1_SS D_D1 
E_U2_U1_ABM4         U2_VREF 0 VALUE { if(V(U2_U1_N2245564)
+  >0.4,0.4,V(U2_U1_N2245564))    }
R_U2_U1_R1         U2_U1_UVLO U2_U1_N48124  1 TC=0,0 
X_U2_U1_U1         SMPS2_IN U2_U1_N00772 U2_U1_UVLO COMP_BASIC_GEN PARAMS:
+  VDD=1 VSS=0 VTHRESH=0.5
V_U2_U1_V8         U2_U1_N2245664 SMPS2_GND 2mV
G_U2_U1_ABMII3         SMPS2_IN U2_U1_SS VALUE { V(U2_EN_INT) * 75n    }
E_U5_ABM19         U5_I_AVG 0 VALUE { if( V(MULTIPHASE)<0.5 , V(U5_N105962), 
+  V(U5_N105962)/2)  
+     }
R_U5_R5         SMPS1_GND U5_N16718917  1000k  
E_U5_ABM23         M_SZ_1 0 VALUE { 1    }
X_U5_S4    U5_N16777185 SMPS1_GND U5_N16718917 SMPS1_GND
+  TPS65917-Q1_SMPS_DUAL_MUPHZ_U5_S4 
X_U5_U17         U5_N106069 PFM_EN_1_2 MULTIPHASE AND2_BASIC_GEN PARAMS: VDD=1
+  VSS=0 VTHRESH=500E-3
V_U5_V15         U5_N167772700 SMPS1_GND 700m
E_U5_ABM21         SA_1 0 VALUE { 0    }
E_U5_SUM1         U5_N105962 0 VALUE {V(I_LO_1)+V(I_LO_2)}
G_U5_ABM2I3         SMPS1_GND U5_N16710619 VALUE { (V(I_LO_2) - V(U5_I_AVG))   
+  }
E_U5_ABM15         RAMP_OFFSET1 0 VALUE { (V(U5_N16718917) * 3)/50    }
X_U5_U8         U5_N104808 U5_N105110 U5_N167772700 U5_N106069
+  COMPHYS2_BASIC_GEN PARAMS: VDD=1 VSS=0 VTHRESH=0.5 T=10
R_U5_R2         U5_N16709163 U5_N16718917  200k  
E_U5_ABM16         U5_N16777185 0 VALUE { if(V(EN_MULT) <1.2,1,0)    }
C_U5_C1         SMPS1_GND U5_N16709163  15p  TC=0,0 
C_U5_C2         SMPS1_GND U5_N167773521  15p  TC=0,0 
E_U5_ABM17         RAMP_OFFSET2 0 VALUE { (V(U5_N16710619) * 3)/50    }
R_U5_R8         U5_N104808 U5_N105962  200k  
R_U5_R3         U5_N167773521 U5_N16710619  200k  
X_U5_S5    U5_N16780317 SMPS1_GND U5_N16710619 SMPS1_GND
+  TPS65917-Q1_SMPS_DUAL_MUPHZ_U5_S5 
E_U5_ABM18         U5_N16780317 0 VALUE { if(V(EN_MULT) <1.2,1,0)    }
V_U5_V14         U5_N105110 SMPS1_GND 650mV
C_U5_C4         SMPS1_GND U5_N104808  15p  TC=0,0 
R_U5_R6         SMPS1_GND U5_N16710619  1000k  
G_U5_ABM2I2         SMPS1_GND U5_N16718917 VALUE { (V(I_LO_1) - V(U5_I_AVG))   
+  }
.IC         V(U1_U6_N16896816 )=0
.ENDS TPS65917-Q1_SMPS12_TRANS
*$
.subckt TPS65917-Q1_SMPS12_EN_UVLO_SS_U1_U1_S4 1 2 3 4  
S_U1_U1_S4         3 4 1 2 _U1_U1_S4
RS_U1_U1_S4         1 2 1G
.MODEL         _U1_U1_S4 VSWITCH Roff=1e9 Ron=1m Voff=0.2 Von=0.8
.ends TPS65917-Q1_SMPS12_EN_UVLO_SS_U1_U1_S4
*$
.subckt TPS65917-Q1_SMPS_DUAL_RS_U1_U2_S4 1 2 3 4  
S_U1_U2_S4         3 4 1 2 _U1_U2_S4
RS_U1_U2_S4         1 2 1G
.MODEL         _U1_U2_S4 VSWITCH Roff=60k Ron=1.0m Voff=0.05V Von=0.95
.ends TPS65917-Q1_SMPS_DUAL_RS_U1_U2_S4
*$
.subckt TPS65917-Q1_SMPS_DUAL_RS_U1_U2_S7 1 2 3 4  
S_U1_U2_S7         3 4 1 2 _U1_U2_S7
RS_U1_U2_S7         1 2 1G
.MODEL         _U1_U2_S7 VSWITCH Roff=480k Ron=1.0m Voff=0.05V Von=0.95
.ends TPS65917-Q1_SMPS_DUAL_RS_U1_U2_S7
*$
.subckt TPS65917-Q1_SMPS_DUAL_RS_U1_U2_S6 1 2 3 4  
S_U1_U2_S6         3 4 1 2 _U1_U2_S6
RS_U1_U2_S6         1 2 1G
.MODEL         _U1_U2_S6 VSWITCH Roff=240k Ron=1.0m Voff=0.05V Von=0.95
.ends TPS65917-Q1_SMPS_DUAL_RS_U1_U2_S6
*$
.subckt TPS65917-Q1_SMPS_DUAL_RS_U1_U2_S5 1 2 3 4  
S_U1_U2_S5         3 4 1 2 _U1_U2_S5
RS_U1_U2_S5         1 2 1G
.MODEL         _U1_U2_S5 VSWITCH Roff=120k Ron=1.0m Voff=0.05V Von=0.95
.ends TPS65917-Q1_SMPS_DUAL_RS_U1_U2_S5
*$
.subckt TPS65917-Q1_SMPS_DUAL_RS_U1_U2_S1 1 2 3 4  
S_U1_U2_S1         3 4 1 2 _U1_U2_S1
RS_U1_U2_S1         1 2 1G
.MODEL         _U1_U2_S1 VSWITCH Roff=7.5k Ron=1.0m Voff=0.05 Von=0.95
.ends TPS65917-Q1_SMPS_DUAL_RS_U1_U2_S1
*$
.subckt TPS65917-Q1_SMPS_DUAL_RS_U1_U2_S2 1 2 3 4  
S_U1_U2_S2         3 4 1 2 _U1_U2_S2
RS_U1_U2_S2         1 2 1G
.MODEL         _U1_U2_S2 VSWITCH Roff=15k Ron=1.0m Voff=0.05 Von=0.95
.ends TPS65917-Q1_SMPS_DUAL_RS_U1_U2_S2
*$
.subckt TPS65917-Q1_SMPS_DUAL_RS_U1_U2_S3 1 2 3 4  
S_U1_U2_S3         3 4 1 2 _U1_U2_S3
RS_U1_U2_S3         1 2 1G
.MODEL         _U1_U2_S3 VSWITCH Roff=30k Ron=1.0m Voff=0.05V Von=0.95
.ends TPS65917-Q1_SMPS_DUAL_RS_U1_U2_S3
*$
.subckt TPS65917-Q1_SMPS_DUAL_EA_U1_U3_S5 1 2 3 4  
S_U1_U3_S5         3 4 1 2 _U1_U3_S5
RS_U1_U3_S5         1 2 1G
.MODEL         _U1_U3_S5 VSWITCH Roff=20k Ron=1.0 Voff=0.0V Von=1.0V
.ends TPS65917-Q1_SMPS_DUAL_EA_U1_U3_S5
*$
.subckt TPS65917-Q1_SMPS_DUAL_EA_U1_U3_S3 1 2 3 4  
S_U1_U3_S3         3 4 1 2 _U1_U3_S3
RS_U1_U3_S3         1 2 1G
.MODEL         _U1_U3_S3 VSWITCH Roff=140k Ron=1.0 Voff=0.0V Von=1.0V
.ends TPS65917-Q1_SMPS_DUAL_EA_U1_U3_S3
*$
.subckt TPS65917-Q1_SMPS_DUAL_EA_U1_U3_S4 1 2 3 4  
S_U1_U3_S4         3 4 1 2 _U1_U3_S4
RS_U1_U3_S4         1 2 1G
.MODEL         _U1_U3_S4 VSWITCH Roff=100k Ron=1.0 Voff=0.0V Von=1.0V
.ends TPS65917-Q1_SMPS_DUAL_EA_U1_U3_S4
*$
.subckt TPS65917-Q1_SMPS_DUAL_DRIVER_U1_U5_S1 1 2 3 4  
S_U1_U5_S1         3 4 1 2 _U1_U5_S1
RS_U1_U5_S1         1 2 1G
.MODEL         _U1_U5_S1 VSWITCH Roff=1e6 Ron=0.05 Voff=0.1V Von=1
.ends TPS65917-Q1_SMPS_DUAL_DRIVER_U1_U5_S1
*$
.subckt TPS65917-Q1_SMPS_DUAL_DRIVER_U1_U5_H2 1 2 3 4  
H_U1_U5_H2         3 4 VH_U1_U5_H2 1
VH_U1_U5_H2         1 2 0V
.ends TPS65917-Q1_SMPS_DUAL_DRIVER_U1_U5_H2
*$
.subckt TPS65917-Q1_SMPS_DUAL_DRIVER_U1_U5_S2 1 2 3 4  
S_U1_U5_S2         3 4 1 2 _U1_U5_S2
RS_U1_U5_S2         1 2 1G
.MODEL         _U1_U5_S2 VSWITCH Roff=1e6 Ron=0.039 Voff=0.1V Von=1
.ends TPS65917-Q1_SMPS_DUAL_DRIVER_U1_U5_S2
*$
.subckt TPS65917-Q1_SMPS_DUAL_DRIVER_U1_U5_H3 1 2 3 4  
H_U1_U5_H3         3 4 VH_U1_U5_H3 1
VH_U1_U5_H3         1 2 0V
.ends TPS65917-Q1_SMPS_DUAL_DRIVER_U1_U5_H3
*$
.subckt TPS65917-Q1_SMPS_DUAL_DRIVER_U1_U5_H1 1 2 3 4  
H_U1_U5_H1         3 4 VH_U1_U5_H1 1
VH_U1_U5_H1         1 2 0V
.ends TPS65917-Q1_SMPS_DUAL_DRIVER_U1_U5_H1
*$
.subckt TPS65917-Q1_SMPS_DUAL_PFM_U1_U6_S1 1 2 3 4  
S_U1_U6_S1         3 4 1 2 _U1_U6_S1
RS_U1_U6_S1         1 2 1G
.MODEL         _U1_U6_S1 VSWITCH Roff=1e12 Ron=1.0m Voff=0.9V Von=0.1V
.ends TPS65917-Q1_SMPS_DUAL_PFM_U1_U6_S1
*$
.subckt TPS65917-Q1_SMPS_DUAL_PFM_U1_U6_S8 1 2 3 4  
S_U1_U6_S8         3 4 1 2 _U1_U6_S8
RS_U1_U6_S8         1 2 1G
.MODEL         _U1_U6_S8 VSWITCH Roff=1e6 Ron=1.0m Voff=0.0V Von=0.95V
.ends TPS65917-Q1_SMPS_DUAL_PFM_U1_U6_S8
*$
.subckt TPS65917-Q1_SMPS_DUAL_PFM_U1_U6_S7 1 2 3 4  
S_U1_U6_S7         3 4 1 2 _U1_U6_S7
RS_U1_U6_S7         1 2 1G
.MODEL         _U1_U6_S7 VSWITCH Roff=1e6 Ron=1.0m Voff=0.0V Von=0.95V
.ends TPS65917-Q1_SMPS_DUAL_PFM_U1_U6_S7
*$
.subckt TPS65917-Q1_SMPS_DUAL_DRIVER_U2_U5_S1 1 2 3 4  
S_U2_U5_S1         3 4 1 2 _U2_U5_S1
RS_U2_U5_S1         1 2 1G
.MODEL         _U2_U5_S1 VSWITCH Roff=1e6 Ron=0.05 Voff=0.1V Von=1
.ends TPS65917-Q1_SMPS_DUAL_DRIVER_U2_U5_S1
*$
.subckt TPS65917-Q1_SMPS_DUAL_DRIVER_U2_U5_H2 1 2 3 4  
H_U2_U5_H2         3 4 VH_U2_U5_H2 1
VH_U2_U5_H2         1 2 0V
.ends TPS65917-Q1_SMPS_DUAL_DRIVER_U2_U5_H2
*$
.subckt TPS65917-Q1_SMPS_DUAL_DRIVER_U2_U5_S2 1 2 3 4  
S_U2_U5_S2         3 4 1 2 _U2_U5_S2
RS_U2_U5_S2         1 2 1G
.MODEL         _U2_U5_S2 VSWITCH Roff=1e6 Ron=0.039 Voff=0.1V Von=1
.ends TPS65917-Q1_SMPS_DUAL_DRIVER_U2_U5_S2
*$
.subckt TPS65917-Q1_SMPS_DUAL_DRIVER_U2_U5_H3 1 2 3 4  
H_U2_U5_H3         3 4 VH_U2_U5_H3 1
VH_U2_U5_H3         1 2 0V
.ends TPS65917-Q1_SMPS_DUAL_DRIVER_U2_U5_H3
*$
.subckt TPS65917-Q1_SMPS_DUAL_DRIVER_U2_U5_H1 1 2 3 4  
H_U2_U5_H1         3 4 VH_U2_U5_H1 1
VH_U2_U5_H1         1 2 0V
.ends TPS65917-Q1_SMPS_DUAL_DRIVER_U2_U5_H1
*$
.subckt TPS65917-Q1_SMPS12_EN_UVLO_SS_U2_U1_S4 1 2 3 4  
S_U2_U1_S4         3 4 1 2 _U2_U1_S4