*$
* TPS659039-Q1
*****************************************************************************
* (C) Copyright 2013 Texas Instruments Incorporated. All rights reserved.                                            
*****************************************************************************
** This model is designed as an aid for customers of Texas Instruments.
** TI and its licensors and suppliers make no warranties, either expressed
** or implied, with respect to this model, including the warranties of 
** merchantability or fitness for a particular purpose.  The model is
** provided solely on an "as is" basis.  The entire risk as to its quality
** and performance is with the customer
*****************************************************************************
*
* This model is subject to change without notice. Texas Instruments
* Incorporated is not responsible for updating this model.
*
*****************************************************************************
*
** Released by: WEBENCH Design Center, Texas Instruments Inc.
* Part: TPS659039-Q1_SMPS123
* Date: 02DEC2013
* Model Type: TRANSIENT
* Simulator: PSPICE
* Simulator Version: 16.2.0.p001
* EVM Order Number: N/A
* EVM Users Guide: N/A
* Datasheet: SWCS115–August 2013
*
* Model Version: Final 1.00
*
*****************************************************************************
*
* Updates:
*
* Final 1.00
* Release to Web.
*
*****************************************************************************
.SUBCKT TPS659039-Q1_SMPS123_TRANS 3OR2PHZ ECO_MODE_1 ECO_MODE_3 RANGE_3
+  SMPS1_2_FB SMPS1_2_FB_GND SMPS1_GND SMPS1_IN SMPS1_SW SMPS2_GND SMPS2_IN
+  SMPS2_SW SMPS3_FB SMPS3_GND SMPS3_IN SMPS3_SW SMPS_EN1_2 SMPS_EN3 VSEL_1_2
+  VSEL_3 PARAMS: FSW=2.2E6 STEADY_STATE=0
E_DVS			DVS SMPS1_GND VALUE {1}
E_U3_ABM15         U3_N16785132 0 VALUE { IF(V(3OR2PHZ) < 0.5 ,
+  V(U3_EN_INT),IF(V(MULTIPHASE)>0.5,1,0))    }
E_U3_ABM11         U3_N110610 0 VALUE { IF(V(3OR2PHZ) > 0.5 & V(MULTIPHASE) <
+  0.5, -0.05 ,V(EA_OUT_3))    }
E_U3_ABM14         U3_N78797 0 VALUE { IF(V(3OR2PHZ)<0.5, V(U3_LS_ODB), 0)  
+     }
X_U3_S1    3OR2PHZ SMPS3_GND SMPS3_FB SMPS3_GND TPS659039-Q1_SMPS3_TRANS_U3_S1 
E_U3_ABM12         U3_N73213 0 VALUE { IF(V(3OR2PHZ)<0.5, V(U3_PFM), 0)  
+     }
V_U3_U7_V4         U3_U7_N16777228 SMPS3_GND 3.7Vdc
V_U3_U7_V11         U3_U7_N167772620 SMPS3_GND 2mVdc
V_U3_U7_V6         U3_U7_N16779957 SMPS3_GND 600m
C_U3_U7_C1         SMPS3_GND U3_U7_N16780222  1.414n  TC=0,0 
X_U3_U7_U16         CLK_3 U3_U7_N16777234 U3_U7_N16777131 AND2_BASIC_GEN
+  PARAMS: VDD=1 VSS=0 VTHRESH=500E-3
V_U3_U7_V10         U3_U7_N167773100 SMPS3_GND 5mVdc
X_U3_U7_U8         I_LO_3 U3_U7_N16778793 U3_U7_N167773100 U3_U7_N16777053
+  COMPHYS2_BASIC_GEN PARAMS: VDD=1 VSS=0 VTHRESH=0.5 T=10
X_U3_U7_U9         U3_U7_N16777228 I_LO_3 U3_U7_N16777234 COMP_BASIC_GEN
+  PARAMS: VDD=1 VSS=0 VTHRESH=0.5
X_U3_U7_U5         CLK_3 U3_U7_N16780222 U3_U7_N16780386 OR2_BASIC_GEN PARAMS:
+  VDD=1 VSS=0 VTHRESH=500E-3
R_U3_U7_R1         U3_OCP_LS U3_U7_N16780222  140 TC=0,0 
V_U3_U7_V5         U3_U7_N16778793 SMPS3_GND 4Vdc
X_U3_U7_U23         U3_U7_N16777053 U3_U7_N16777131 U3_OCP_MODE N16777712
+  SRLATCHRHP_BASIC_GEN PARAMS: VDD=1 VSS=0 VTHRESH=0.5
X_U3_U7_U27         U3_U7_N16779920 U3_U7_N16780386 U3_U7_N16778386 N16780571
+  SRLATCHRHP_BASIC_GEN PARAMS: VDD=1 VSS=0 VTHRESH=0.5
E_U3_U7_E1         U3_OCP_LS SMPS3_GND U3_U7_N16778386 SMPS3_GND 1
X_U3_U7_U22         U3_U7_N16777131 U3_U7_N16777053 U3_OCP_GATE N16777467
+  SRLATCHRHP_BASIC_GEN PARAMS: VDD=1 VSS=0 VTHRESH=0.5
X_U3_U7_U10         U3_I_LS U3_U7_N16779957 U3_U7_N167772620 U3_U7_N16779920
+  COMPHYS2_BASIC_GEN PARAMS: VDD=1 VSS=0 VTHRESH=0.5 T=10
C_U3_U1_C3         SMPS3_GND U3_U1_SS  80p  
C_U3_U1_C1         SMPS3_GND U3_U1_N48124  1n  TC=0,0 
G_U3_U1_ABMII3         SMPS3_IN U3_U1_SS VALUE { V(U3_EN_INT) * 75n    }
X_U3_U1_U8         U3_VREF U3_U1_N2245642 U3_U1_N2245664 PFM_EN_3
+  COMPHYS2_BASIC_GEN PARAMS: VDD=1 VSS=0 VTHRESH=0.5 T=10
E_U3_U1_E3         U3_U1_N2245564 SMPS3_GND U3_U1_SS SMPS3_GND 1
E_U3_U1_E2         U3_U1_N47325 SMPS3_GND U3_U1_N48124 SMPS3_GND -200m
D_U3_U1_D33         U3_U1_SS SMPS3_IN D_D1 
X_U3_U1_U1         SMPS3_IN U3_U1_N00772 U3_U1_UVLO COMP_BASIC_GEN PARAMS:
+  VDD=1 VSS=0 VTHRESH=0.5
V_U3_U1_V8         U3_U1_N2245664 SMPS3_GND 2mV
R_U3_U1_R1         U3_U1_UVLO U3_U1_N48124  1 TC=0,0 
V_U3_U1_V1         U3_U1_N00772 U3_U1_N47325 2.5
V_U3_U1_V6         U3_U1_N2245642 SMPS3_GND 388mV
X_U3_U1_U2         SMPS_EN3 U3_U1_N01836 U3_U1_N01850 COMP_BASIC_GEN PARAMS:
+  VDD=1 VSS=0 VTHRESH=0.5
X_U3_U1_U34         U3_U1_UVLO U3_U1_N01850 U3_EN_INT AND2_BASIC_GEN PARAMS:
+  VDD=1 VSS=0 VTHRESH=500E-3
D_U3_U1_D34         SMPS3_GND U3_U1_SS D_D1 
V_U3_U1_V2         U3_U1_N01836 SMPS3_GND 1.2
E_U3_U1_ABM4         U3_VREF 0 VALUE { if(V(U3_U1_N2245564)
+  >0.388,0.4,V(U3_U1_N2245564))    }
X_U3_U1_S4    U3_EN_INT_N SMPS3_GND U3_U1_SS SMPS3_GND
+  TPS659039-Q1_SMPS_EN_UVLO_SS_U3_U1_S4 
X_U3_U1_U4         U3_EN_INT U3_EN_INT_N INV_BASIC_GEN PARAMS: VDD=1 VSS=0
+  VTHRESH=500E-3
E_U3_ABM13         U3_N73378 0 VALUE { IF(V(3OR2PHZ)<0.5, V(U3_PFM_SEL), 0)  
+     }
G_U3_U2_ABM2I1         SMPS3_GND U3_U2_N2222586 VALUE { LIMIT((V(VSEL_3) -
+  V(U3_U2_N2222712)) , 25u , -25u)    }
E_U3_U2_ABM4         U3_U2_N52942 0 VALUE {
+  if(V(U3_U2_N52768)-16<0,V(U3_U2_N52768),V(U3_U2_N52768)-16)    }
C_U3_U2_C1         SMPS3_GND U3_U2_N2222586  10n  TC=0,0 
E_U3_U2_ABM8         U3_U2_N53427 0 VALUE {
+  if(V(U3_U2_N53263)-4<0,V(U3_U2_N53263),V(U3_U2_N53263)-4)    }
E_U3_U2_ABM18         U3_U2_VSEL_INT 0 VALUE { if(V(SMPS3_GND) >0.5,
+  V(U3_U2_N2222712) ,V(VSEL_3))    }
E_U3_U2_ABM2         U3_U2_N52768 0 VALUE {
+  if(V(U3_U2_N00069)-32<0,V(U3_U2_N00069),V(U3_U2_N00069)-32)    }
E_U3_U2_ABM14         U3_FB_INT 0 VALUE { if( V(RANGE_3)>0.5 , V(U3_U2_N59465)
+  ,V(U3_U2_N59369))    }
X_U3_U2_S2    U3_U2_VOUT_1 SMPS3_GND U3_U2_N55059 U3_U2_N55164
+  TPS659039-Q1_SMPS_RS_U3_U2_S2 
E_U3_U2_ABM15         U3_U2_VOUT_0 0 VALUE { if(V(U3_U2_N53800)-0.5>0,0,1)    }
X_U3_U2_S1    U3_U2_VOUT_0 SMPS3_GND SMPS3_FB U3_U2_N55059
+  TPS659039-Q1_SMPS_RS_U3_U2_S1 
E_U3_U2_ABM16         U3_U2_N58463 0 VALUE { if(V(PFM_EN_3) >0.5 | V(RANGE_3) < 0.5,
+  V(U3_U2_VOUT_6) ,1) }
E_U3_U2_ABM3         U3_U2_VOUT_6 0 VALUE { if(V(U3_U2_N00069)-32>0,0,1)    }
E_U3_U2_ABM9         U3_U2_VOUT_3 0 VALUE { if(V(U3_U2_N53263)-4>0,0,1)    }
E_U3_U2_ABM12         U3_U2_N53800 0 VALUE {
+  if(V(U3_U2_N53606)-1<0,V(U3_U2_N53606),V(U3_U2_N53606)-1)    }
R_U3_U2_R1         U3_U2_N59369 U3_U2_N58443  30k  
E_U3_U2_ABM1         U3_U2_N00069 0 VALUE { if(V(RANGE_3)
+  >0.5,(10*((V(U3_U2_VSEL_INT)/0.4)-1))-11.995,(20*((V(U3_U2_VSEL_INT)/0.4)-1))-1.995)}
X_U3_U2_S3    U3_U2_VOUT_2 SMPS3_GND U3_U2_N55164 U3_U2_N55281
+  TPS659039-Q1_SMPS_RS_U3_U2_S3 
X_U3_U2_S7    U3_U2_N58463 SMPS3_GND U3_U2_N55704 U3_U2_N58443
+  TPS659039-Q1_SMPS_RS_U3_U2_S7 
E_U3_U2_ABM5         U3_U2_VOUT_5 0 VALUE { if(V(U3_U2_N52768)-16>0,0,1)    }
E_U3_U2_ABM10         U3_U2_N53606 0 VALUE {
+  if(V(U3_U2_N53427)-2<0,V(U3_U2_N53427),V(U3_U2_N53427)-2)    }
R_U3_U2_R2         U3_U2_N59465 U3_U2_N59369  150k  
E_U3_U2_ABM13         U3_U2_VOUT_1 0 VALUE { if(V(U3_U2_N53606)-1>0,0,1)    }
E_U3_U2_ABM6         U3_U2_N53263 0 VALUE {
+  if(V(U3_U2_N52942)-8<0,V(U3_U2_N52942),V(U3_U2_N52942)-8)    }
E_U3_U2_E1         U3_U2_N2222712 SMPS3_GND U3_U2_N2222586 SMPS3_GND 1
R_U3_U2_R3         SMPS3_GND U3_U2_N59465  150k  
X_U3_U2_S4    U3_U2_VOUT_3 SMPS3_GND U3_U2_N55281 U3_U2_N55410
+  TPS659039-Q1_SMPS_RS_U3_U2_S4 
R_U3_U2_R4         SMPS3_GND U3_U2_N2222586  1G  
E_U3_U2_ABM7         U3_U2_VOUT_4 0 VALUE { if(V(U3_U2_N52942)-8>0,0,1)    }
E_U3_U2_ABM11         U3_U2_VOUT_2 0 VALUE { if(V(U3_U2_N53427)-2>0,0,1)    }
X_U3_U2_S5    U3_U2_VOUT_4 SMPS3_GND U3_U2_N55410 U3_U2_N55551
+  TPS659039-Q1_SMPS_RS_U3_U2_S5 
X_U3_U2_S6    U3_U2_VOUT_5 SMPS3_GND U3_U2_N55551 U3_U2_N55704
+  TPS659039-Q1_SMPS_RS_U3_U2_S6 
E_U3_U3_E2         U3_U3_N16808005 SMPS3_GND SMPS3_IN SMPS3_GND 0.2
D_U3_U3_D3         U3_U3_N16802065 U3_U3_N3 D_D1 
R_U3_U3_R11         U3_U3_N16779046 U3_U3_N16809904  200k  
E_U3_U3_ABM11         EA_OUT_3 0 VALUE { IF(V(M_SZ_3) > 0.5, V(U3_U3_N16791855)
+  ,V(EA_OUT_1))    }
D_U3_U3_D6         SMPS3_GND U3_U3_N16791855 D_D1 
D_U3_U3_D4         U3_U3_N3 0 D_D1 
C_U3_U3_C10         U3_U3_N34913 U3_U3_N34843  5p  
G_U3_U3_G3         SMPS3_GND U3_U3_N16791855 U3_U3_N16812284 SMPS3_GND 1
E_U3_U3_ABM10         U3_U3_N16854472 0 VALUE { IF(V(SA_3)<0.5 & V(3OR2PHZ)<0.5
+  & V(MULTIPHASE) < 0.5,0 ,1)    }
R_U3_U3_R14         U3_U3_N34913 U3_U3_N34843  200k  
G_U3_U3_G1         SMPS3_GND U3_U3_N2 U3_VREF U3_FB_INT 25u
X_U3_U3_S5    U3_U3_N16786219 SMPS3_GND U3_U3_N16786499 U3_U3_N16786609
+  TPS659039-Q1_SMPS_EA_U3_U3_S5 
C_U3_U3_C5         SMPS3_GND U3_U3_N16786609  80p  
E_U3_U3_E1         U3_U3_N16796191 SMPS3_GND SMPS3_IN SMPS3_GND 0.2
R_U3_U3_R12         SMPS3_GND U3_U3_N16779046  50k  
C_U3_U3_C8         SMPS3_GND U3_U3_N2  0.5p  
E_U3_U3_GAIN2         U3_U3_N34843 0 VALUE {10 * V(U3_U3_N3)}
X_U3_U3_S3    U3_U3_N16854472 SMPS3_GND U3_U3_N16853326 U3_U3_N16853104
+  TPS659039-Q1_SMPS_EA_U3_U3_S3 
G_U3_U3_G2         SMPS3_GND U3_U3_N3 SMPS3_GND U3_FB_INT {1/200k}
R_U3_U3_R15         SMPS3_GND U3_U3_N34913  50k  
D_U3_U3_D2         0 U3_U3_N2 D_D1 
E_U3_U3_SUM1         U3_U3_N16812284 0 VALUE 
+ {V(U3_U3_N16779046)+V(U3_U3_N34913)}
R_U3_U3_R16         SMPS3_GND U3_U3_N3  200k  
C_U3_U3_C7         U3_U3_N16779046 U3_U3_N16809904  5p  
E_U3_U3_ABM9         U3_U3_N16854590 0 VALUE { IF(V(SA_3)<0.5 & V(3OR2PHZ)>0.5
+  & V(MULTIPHASE) < 0.5,0 ,1)    }
C_U3_U3_C9         SMPS3_GND U3_U3_N3  0.5p  
D_U3_U3_D1         U3_U3_N2 U3_U3_N16796191 D_D1 
R_U3_U3_R9         SMPS3_GND U3_U3_N2  126Meg  
R_U3_U3_R10         U3_U3_N16853326 U3_U3_N2  200k  
R_U3_U3_R17         SMPS3_GND U3_U3_N16791855  1  
D_U3_U3_D5         U3_U3_N16791855 U3_U3_N16808005 D_D1 
E_U3_U3_ABM8         U3_U3_N16786219 0 VALUE { IF(V(SA_3)>0.5 ,1, 0)    }
E_U3_U3_GAIN1         U3_U3_N16809904 0 VALUE {10 * V(U3_U3_N2)}
X_U3_U3_S4    U3_U3_N16854590 SMPS3_GND U3_U3_N16853104 U3_U3_N16786499
+  TPS659039-Q1_SMPS_EA_U3_U3_S4 
V_U3_U3_V1         U3_U3_N16802065 0 -0.4Vdc
R_U3_U5_R25         U3_U5_N167767331 U3_U5_N16670888  1  
E_U3_U5_ABM6         U3_U5_HO 0 VALUE { IF(V(U3_U5_N16705109)>0.5,
+  V(U3_U5_N03457), 0)    }
E_U3_U5_ABM4         U3_U5_N167767331 0 VALUE { IF(V(U3_N73378)>0.5,
+  V(U3_N73213), V(U3_U5_N16669492))    }
X_U3_U5_U5         U3_U5_N108 U3_N78797 U3_U5_N109 OR2_BASIC_GEN PARAMS: VDD=1
+  VSS=0 VTHRESH=500E-3
X_U3_U5_H2    SMPS3_IN U3_U5_N16706232 U3_U5_I_HS SMPS3_GND
+  TPS659039-Q1_SMPS_DRIVER_U3_U5_H2 
D_U3_U5_D29         U3_U5_N16706240 U3_U5_N16706214 D_D1 
X_U3_U5_U16         U3_U5_N03471 U3_U5_N03465 BUF_DELAY_BASIC_GEN PARAMS: VDD=1
+  VSS=0 VTHRESH=0.5 DELAY=5n
C_U3_U5_C13         SMPS3_GND U3_U5_N16705109  1n  
X_U3_U5_U14         U3_U5_N03465 U3_U5_N03471 U3_U5_N03507 AND2_BASIC_GEN
+  PARAMS: VDD=1 VSS=0 VTHRESH=500E-3
X_U3_U5_U17         U3_PWM U3_OCP_GATE U3_U5_N16669492 AND2_BASIC_GEN PARAMS:
+  VDD=1 VSS=0 VTHRESH=500E-3
C_U3_U5_C16         SMPS3_GND U3_U5_N16670888  1n  
X_U3_U5_U26         U3_U5_N16705109 U3_U5_N108 INV_BASIC_GEN PARAMS: VDD=1
+  VSS=0 VTHRESH=500E-3
X_U3_U5_U15         U3_U5_PULSE U3_U5_N03415 BUF_DELAY_BASIC_GEN PARAMS: VDD=1
+  VSS=0 VTHRESH=0.5 DELAY=5n
X_U3_U5_U6         U3_U5_N16670888 U3_OCP_LS U3_U5_PULSE OR2_BASIC_GEN PARAMS:
+  VDD=1 VSS=0 VTHRESH=500E-3
E_U3_U5_ABM3         U3_U5_LO 0 VALUE { IF(V(U3_U5_N109)>0.5, 0,
+  V(U3_U5_N03507))    }
X_U3_U5_S2    U3_U5_LO SMPS3_GND U3_U5_N16706214 U3_U5_N16706240
+  TPS659039-Q1_SMPS_DRIVER_U3_U5_S2 
D_U3_U5_D28         U3_U5_N16706214 U3_U5_N16706232 D_D1 
X_U3_U5_S1    U3_U5_HO SMPS3_GND U3_U5_N16706232 U3_U5_N16706214
+  TPS659039-Q1_SMPS_DRIVER_U3_U5_S1 
R_U3_U5_R22         U3_N16785132 U3_U5_N16705109  1  
X_U3_U5_U25         U3_U5_PULSE U3_U5_N03471 INV_BASIC_GEN PARAMS: VDD=1 VSS=0
+  VTHRESH=500E-3
X_U3_U5_H3    U3_U5_N16706214 SMPS3_SW I_LO_3 SMPS3_GND
+  TPS659039-Q1_SMPS_DRIVER_U3_U5_H3 
X_U3_U5_H1    U3_U5_N16706240 SMPS3_GND U3_I_LS SMPS3_GND
+  TPS659039-Q1_SMPS_DRIVER_U3_U5_H1 
X_U3_U5_U13         U3_U5_N03415 U3_U5_PULSE U3_U5_N03457 AND2_BASIC_GEN
+  PARAMS: VDD=1 VSS=0 VTHRESH=500E-3
E_U3_U4_SUM3         U3_U4_N16774563 0 VALUE {V(RAMP_OFFSET3)+V(RAMP_3)}
X_U3_U4_U10         U3_U4_N16777320 U3_PWM INV_BASIC_GEN PARAMS: VDD=1 VSS=0
+  VTHRESH=500E-3
X_U3_U4_U1         U3_U4_N16774563 U3_N110610 U3_U4_N16777320 COMP_BASIC_GEN
+  PARAMS: VDD=1 VSS=0 VTHRESH=0.5
X_U3_U6_U6         U3_FB_INT U3_U6_N16781840 U3_U6_N167774563 U3_U6_N16784372
+  COMPHYS2_BASIC_GEN PARAMS: VDD=1 VSS=0 VTHRESH=0.5 T=10
V_U3_U6_V14         U3_U6_N110 SMPS3_GND 392mV
V_U3_U6_V12         U3_U6_N16781840 SMPS3_GND 401mV
X_U3_U6_U14         U3_U6_N16775398 PFM_EN_3 U3_U6_N16921597 AND2_BASIC_GEN
+  PARAMS: VDD=1 VSS=0 VTHRESH=500E-3
X_U3_U6_U7         U3_FB_INT U3_U6_N110 U3_U6_N167772460 U3_U6_N16775504
+  COMPHYS2_BASIC_GEN PARAMS: VDD=1 VSS=0 VTHRESH=0.5 T=10
X_U3_U6_U17         U3_U6_N16775394 U3_U6_S_I U3_U6_N16775464 AND2_BASIC_GEN
+  PARAMS: VDD=1 VSS=0 VTHRESH=500E-3
V_U3_U6_V15         U3_U6_N167772460 SMPS3_GND 4mV
C_U3_U6_C15         U3_U6_N16817072 SMPS3_GND  20pF  
V_U3_U6_V13         U3_U6_N16790109 SMPS3_GND 404mV
X_U3_U6_U25         U3_U6_N16896816 U3_U6_N16896924 U3_U6_N16776342
+  COMP_BASIC_GEN PARAMS: VDD=1 VSS=0 VTHRESH=0.5
X_U3_U6_U29         CLK_3 U3_U6_N16926573 one_shot PARAMS:  T=20  
X_U3_U6_U19         U3_U6_N16780499 PFM_EN_3 U3_U6_N16775850 AND2_BASIC_GEN
+  PARAMS: VDD=1 VSS=0 VTHRESH=500E-3
X_U3_U6_U23         U3_U6_N16786921 U3_U6_N16802015 U3_U6_N16775394 N16838200
+  SRLATCHRHP_BASIC_GEN PARAMS: VDD=1 VSS=0 VTHRESH=0.5
X_U3_U6_U8         SMPS3_GND I_LO_3 U3_U6_N16809488 U3_U6_N16775398
+  COMPHYS2_BASIC_GEN PARAMS: VDD=1 VSS=0 VTHRESH=0.5 T=10
V_U3_U6_V19         U3_U6_N167774563 SMPS3_GND 2mV
R_U3_U6_R24         U3_U6_N16830821 U3_U6_N16817072  270k  
X_U3_U6_U2         U3_U6_N16776084 I_LO_3 U3_U6_N16776108 COMP_BASIC_GEN
+  PARAMS: VDD=1 VSS=0 VTHRESH=0.5
X_U3_U6_U10         U3_U6_N16784372 U3_U6_N16786921 INV_BASIC_GEN PARAMS: VDD=1
+  VSS=0 VTHRESH=500E-3
X_U3_U6_S1    U3_U6_N16896864 SMPS3_GND U3_U6_N16896816 SMPS3_GND
+  TPS659039-Q1_SMPS_PFM_U3_U6_S1 
R_U3_U6_R23         U3_U6_N16896920 U3_U6_N16896878  1  
C_U3_U6_C14         SMPS3_GND U3_U6_N16775434  15pF  
V_U3_U6_V16         U3_U6_N16793443 SMPS3_GND 2mV
G_U3_U6_ABMII1         SMPS3_IN U3_U6_N16896816 VALUE { V(U3_U6_N16896979)*10u 
+    }
X_U3_U6_U18         ECO_MODE_3 U3_U6_N16775850 U3_U6_PFM_MODE U3_PFM_SEL
+  AND3_BASIC_GEN PARAMS: VDD=1 VSS=0 VTHRESH=500E-3
X_U3_U6_U27         U3_U6_N16776342 U3_U6_N16896920 INV_BASIC_GEN PARAMS: VDD=1
+  VSS=0 VTHRESH=500E-3
X_U3_U6_U3         U3_U6_N16793443 I_LO_3 U3_U6_S_I COMP_BASIC_GEN PARAMS:
+  VDD=1 VSS=0 VTHRESH=0.5
R_U3_U6_R22         U3_U6_N16775590 U3_U6_N16775434  320k  
C_U3_U6_C1         SMPS3_GND U3_U6_N16896816  1p  
E_U3_U6_GAIN1         U3_U6_N16830821 0 VALUE {0.2 * V(SMPS3_SW)}
X_U3_U6_S8    U3_PFM SMPS3_GND SMPS3_IN U3_U6_N16775590
+  TPS659039-Q1_SMPS_PFM_U3_U6_S8 
X_U3_U6_S7    U3_U6_N16839029 SMPS3_GND U3_U6_N16775434 SMPS3_GND
+  TPS659039-Q1_SMPS_PFM_U3_U6_S7 
X_U3_U6_U22         U3_U6_N16776342 U3_U6_N16905809 U3_U6_PFM_MODE N16836600
+  SRLATCHRHP_BASIC_GEN PARAMS: VDD=1 VSS=0 VTHRESH=0.5
X_U3_U6_U21         U3_U6_N16775464 U3_U6_N16775272 U3_PFM N16834722
+  SRLATCHRHP_BASIC_GEN PARAMS: VDD=1 VSS=0 VTHRESH=0.5
V_U3_U6_V20         U3_U6_N16896924 SMPS3_GND 0.7
X_U3_U6_U26         U3_U6_N16896878 U3_EN_INT U3_U6_N16896864 AND2_BASIC_GEN
+  PARAMS: VDD=1 VSS=0 VTHRESH=500E-3
X_U3_U6_U4         U3_U6_N16775430 U3_OCP_MODE U3_U6_N16905809 OR2_BASIC_GEN
+  PARAMS: VDD=1 VSS=0 VTHRESH=500E-3
X_U3_U6_U11         U3_U6_N16775504 U3_U6_N16775430 INV_BASIC_GEN PARAMS: VDD=1
+  VSS=0 VTHRESH=500E-3
V_U3_U6_V17         U3_U6_N16809488 SMPS3_GND 8mV
X_U3_U6_U24         U3_U6_N16896981 U3_U6_N16896979 one_shot PARAMS:  T=20  
X_U3_U6_U9         U3_U6_N16775434 U3_U6_N16817072 U3_U6_N16775190
+  COMP_BASIC_GEN PARAMS: VDD=1 VSS=0 VTHRESH=0.5
C_U3_U6_C13         SMPS3_GND U3_U6_N16896878  1n  
X_U3_U6_U1         U3_FB_INT U3_U6_N16790109 U3_U6_N16802015 COMP_BASIC_GEN
+  PARAMS: VDD=1 VSS=0 VTHRESH=0.5
X_U3_U6_U16         SMPS3_GND U3_U6_N16780499 INV_BASIC_GEN PARAMS: VDD=1 VSS=0
+  VTHRESH=500E-3
X_U3_U6_U15         U3_PFM_SEL U3_U6_S_I U3_LS_ODB AND2_BASIC_GEN PARAMS: VDD=1
+  VSS=0 VTHRESH=500E-3
X_U3_U6_U20         U3_U6_N16775190 U3_U6_N16776108 U3_U6_N16775272 N16833393
+  SRLATCHRHP_BASIC_GEN PARAMS: VDD=1 VSS=0 VTHRESH=0.5
D_U3_U6_D29         U3_U6_N16896816 SMPS3_IN D_D1 
V_U3_U6_V18         U3_U6_N16776084 SMPS3_GND 15mV
X_U3_U6_U28         U3_U6_N16921597 U3_U6_N16926573 U3_U6_N16896981 N16928148
+  SRLATCHRHP_BASIC_GEN PARAMS: VDD=1 VSS=0 VTHRESH=0.5
X_U3_U6_U13         U3_PFM U3_U6_N16839029 INV_BASIC_GEN PARAMS: VDD=1 VSS=0
+  VTHRESH=500E-3
E_U1_U3_E2         U1_U3_N16808005 SMPS1_GND SMPS1_IN SMPS1_GND 0.2
D_U1_U3_D3         U1_U3_N16802065 U1_U3_N3 D_D1 
R_U1_U3_R11         U1_U3_N16779046 U1_U3_N16809904  200k  
E_U1_U3_ABM11         EA_OUT_1 0 VALUE { IF(V(M_SZ_1) > 0.5, V(U1_U3_N16791855)
+  ,V(SMPS1_GND))    }
D_U1_U3_D6         SMPS1_GND U1_U3_N16791855 D_D1 
D_U1_U3_D4         U1_U3_N3 0 D_D1 
C_U1_U3_C10         U1_U3_N34913 U1_U3_N34843  5p  
G_U1_U3_G3         SMPS1_GND U1_U3_N16791855 U1_U3_N16812284 SMPS1_GND 1
E_U1_U3_ABM10         U1_U3_N16854472 0 VALUE { IF(V(SA_1)<0.5 & V(3OR2PHZ)<0.5
+  & V(MULTIPHASE) < 0.5,0 ,1)    }
R_U1_U3_R14         U1_U3_N34913 U1_U3_N34843  200k  
G_U1_U3_G1         SMPS1_GND U1_U3_N2 U1_VREF U1_FB_INT 25u
X_U1_U3_S5    U1_U3_N16786219 SMPS1_GND U1_U3_N16786499 U1_U3_N16786609
+  TPS659039-Q1_SMPS_EA_U1_U3_S5 
C_U1_U3_C5         SMPS1_GND U1_U3_N16786609  80p  
E_U1_U3_E1         U1_U3_N16796191 SMPS1_GND SMPS1_IN SMPS1_GND 0.2
R_U1_U3_R12         SMPS1_GND U1_U3_N16779046  50k  
C_U1_U3_C8         SMPS1_GND U1_U3_N2  0.5p  
E_U1_U3_GAIN2         U1_U3_N34843 0 VALUE {10 * V(U1_U3_N3)}
X_U1_U3_S3    U1_U3_N16854472 SMPS1_GND U1_U3_N16853326 U1_U3_N16853104
+  TPS659039-Q1_SMPS_EA_U1_U3_S3 
G_U1_U3_G2         SMPS1_GND U1_U3_N3 SMPS1_GND U1_FB_INT {1/200k}
R_U1_U3_R15         SMPS1_GND U1_U3_N34913  50k  
D_U1_U3_D2         0 U1_U3_N2 D_D1 
E_U1_U3_SUM1         U1_U3_N16812284 0 VALUE 
+ {V(U1_U3_N16779046)+V(U1_U3_N34913)}
R_U1_U3_R16         SMPS1_GND U1_U3_N3  200k  
C_U1_U3_C7         U1_U3_N16779046 U1_U3_N16809904  5p  
E_U1_U3_ABM9         U1_U3_N16854590 0 VALUE { IF(V(SA_1)<0.5 & V(3OR2PHZ)>0.5
+  & V(MULTIPHASE) < 0.5,0 ,1)    }
C_U1_U3_C9         SMPS1_GND U1_U3_N3  0.5p  
D_U1_U3_D1         U1_U3_N2 U1_U3_N16796191 D_D1 
R_U1_U3_R9         SMPS1_GND U1_U3_N2  126Meg  
R_U1_U3_R10         U1_U3_N16853326 U1_U3_N2  200k  
R_U1_U3_R17         SMPS1_GND U1_U3_N16791855  1  
D_U1_U3_D5         U1_U3_N16791855 U1_U3_N16808005 D_D1 
E_U1_U3_ABM8         U1_U3_N16786219 0 VALUE { IF(V(SA_1)>0.5 ,1, 0)    }
E_U1_U3_GAIN1         U1_U3_N16809904 0 VALUE {10 * V(U1_U3_N2)}
X_U1_U3_S4    U1_U3_N16854590 SMPS1_GND U1_U3_N16853104 U1_U3_N16786499
+  TPS659039-Q1_SMPS_EA_U1_U3_S4 
V_U1_U3_V1         U1_U3_N16802065 0 -0.4Vdc
X_U1_U6_U6         U1_FB_INT U1_U6_N16781840 U1_U6_N167774563 U1_U6_N16784372
+  COMPHYS2_BASIC_GEN PARAMS: VDD=1 VSS=0 VTHRESH=0.5 T=10
V_U1_U6_V14         U1_U6_N110 SMPS1_GND 392mV
V_U1_U6_V12         U1_U6_N16781840 SMPS1_GND 401mV
X_U1_U6_U14         U1_U6_N16775398 PFM_EN_1_2 U1_U6_N16921597 AND2_BASIC_GEN
+  PARAMS: VDD=1 VSS=0 VTHRESH=500E-3
X_U1_U6_U7         U1_FB_INT U1_U6_N110 U1_U6_N167772460 U1_U6_N16775504
+  COMPHYS2_BASIC_GEN PARAMS: VDD=1 VSS=0 VTHRESH=0.5 T=10
X_U1_U6_U17         U1_U6_N16775394 U1_U6_S_I U1_U6_N16775464 AND2_BASIC_GEN
+  PARAMS: VDD=1 VSS=0 VTHRESH=500E-3
V_U1_U6_V15         U1_U6_N167772460 SMPS1_GND 4mV
C_U1_U6_C15         U1_U6_N16817072 SMPS1_GND  20pF  
V_U1_U6_V13         U1_U6_N16790109 SMPS1_GND 404mV
X_U1_U6_U25         U1_U6_N16896816 U1_U6_N16896924 U1_U6_N16776342
+  COMP_BASIC_GEN PARAMS: VDD=1 VSS=0 VTHRESH=0.5
X_U1_U6_U29         CLK_1 U1_U6_N16926573 one_shot PARAMS:  T=20  
X_U1_U6_U19         U1_U6_N16780499 PFM_EN_1_2 U1_U6_N16775850 AND2_BASIC_GEN
+  PARAMS: VDD=1 VSS=0 VTHRESH=500E-3
X_U1_U6_U23         U1_U6_N16786921 U1_U6_N16802015 U1_U6_N16775394 N16838200
+  SRLATCHRHP_BASIC_GEN PARAMS: VDD=1 VSS=0 VTHRESH=0.5
X_U1_U6_U8         SMPS1_GND I_LO_1 U1_U6_N16809488 U1_U6_N16775398
+  COMPHYS2_BASIC_GEN PARAMS: VDD=1 VSS=0 VTHRESH=0.5 T=10
V_U1_U6_V19         U1_U6_N167774563 SMPS1_GND 2mV
R_U1_U6_R24         U1_U6_N16830821 U1_U6_N16817072  270k  
X_U1_U6_U2         U1_U6_N16776084 I_LO_1 U1_U6_N16776108 COMP_BASIC_GEN
+  PARAMS: VDD=1 VSS=0 VTHRESH=0.5
X_U1_U6_U10         U1_U6_N16784372 U1_U6_N16786921 INV_BASIC_GEN PARAMS: VDD=1
+  VSS=0 VTHRESH=500E-3
X_U1_U6_S1    U1_U6_N16896864 SMPS1_GND U1_U6_N16896816 SMPS1_GND
+  TPS659039-Q1_SMPS_PFM_U1_U6_S1 
R_U1_U6_R23         U1_U6_N16896920 U1_U6_N16896878  1  
C_U1_U6_C14         SMPS1_GND U1_U6_N16775434  15pF  
V_U1_U6_V16         U1_U6_N16793443 SMPS1_GND 2mV
G_U1_U6_ABMII1         SMPS1_IN U1_U6_N16896816 VALUE { V(U1_U6_N16896979)*10u 
+    }
X_U1_U6_U18         ECO_MODE_1 U1_U6_N16775850 U1_U6_PFM_MODE U1_PFM_SEL
+  AND3_BASIC_GEN PARAMS: VDD=1 VSS=0 VTHRESH=500E-3
X_U1_U6_U27         U1_U6_N16776342 U1_U6_N16896920 INV_BASIC_GEN PARAMS: VDD=1
+  VSS=0 VTHRESH=500E-3
X_U1_U6_U3         U1_U6_N16793443 I_LO_1 U1_U6_S_I COMP_BASIC_GEN PARAMS:
+  VDD=1 VSS=0 VTHRESH=0.5
R_U1_U6_R22         U1_U6_N16775590 U1_U6_N16775434  320k  
C_U1_U6_C1         SMPS1_GND U1_U6_N16896816  1p  
E_U1_U6_GAIN1         U1_U6_N16830821 0 VALUE {0.2 * V(SMPS1_SW)}
X_U1_U6_S8    U1_PFM SMPS1_GND SMPS1_IN U1_U6_N16775590
+  TPS659039-Q1_SMPS_PFM_U1_U6_S8 
X_U1_U6_S7    U1_U6_N16839029 SMPS1_GND U1_U6_N16775434 SMPS1_GND
+  TPS659039-Q1_SMPS_PFM_U1_U6_S7 
X_U1_U6_U22         U1_U6_N16776342 U1_U6_N16905809 U1_U6_PFM_MODE N16836600
+  SRLATCHRHP_BASIC_GEN PARAMS: VDD=1 VSS=0 VTHRESH=0.5
X_U1_U6_U21         U1_U6_N16775464 U1_U6_N16775272 U1_PFM N16834722
+  SRLATCHRHP_BASIC_GEN PARAMS: VDD=1 VSS=0 VTHRESH=0.5
V_U1_U6_V20         U1_U6_N16896924 SMPS1_GND 0.7
X_U1_U6_U26         U1_U6_N16896878 EN_MULT U1_U6_N16896864 AND2_BASIC_GEN
+  PARAMS: VDD=1 VSS=0 VTHRESH=500E-3
X_U1_U6_U4         U1_U6_N16775430 U1_OCP_MODE U1_U6_N16905809 OR2_BASIC_GEN
+  PARAMS: VDD=1 VSS=0 VTHRESH=500E-3
X_U1_U6_U11         U1_U6_N16775504 U1_U6_N16775430 INV_BASIC_GEN PARAMS: VDD=1
+  VSS=0 VTHRESH=500E-3
V_U1_U6_V17         U1_U6_N16809488 SMPS1_GND 8mV
X_U1_U6_U24         U1_U6_N16896981 U1_U6_N16896979 one_shot PARAMS:  T=20  
X_U1_U6_U9         U1_U6_N16775434 U1_U6_N16817072 U1_U6_N16775190
+  COMP_BASIC_GEN PARAMS: VDD=1 VSS=0 VTHRESH=0.5
C_U1_U6_C13         SMPS1_GND U1_U6_N16896878  1n  
X_U1_U6_U1         U1_FB_INT U1_U6_N16790109 U1_U6_N16802015 COMP_BASIC_GEN
+  PARAMS: VDD=1 VSS=0 VTHRESH=0.5
X_U1_U6_U16         MULTIPHASE U1_U6_N16780499 INV_BASIC_GEN PARAMS: VDD=1
+  VSS=0 VTHRESH=500E-3
X_U1_U6_U15         U1_PFM_SEL U1_U6_S_I U1_LS_ODB AND2_BASIC_GEN PARAMS: VDD=1
+  VSS=0 VTHRESH=500E-3
X_U1_U6_U20         U1_U6_N16775190 U1_U6_N16776108 U1_U6_N16775272 N16833393
+  SRLATCHRHP_BASIC_GEN PARAMS: VDD=1 VSS=0 VTHRESH=0.5
D_U1_U6_D29         U1_U6_N16896816 SMPS1_IN D_D1 
V_U1_U6_V18         U1_U6_N16776084 SMPS1_GND 15mV
X_U1_U6_U28         U1_U6_N16921597 U1_U6_N16926573 U1_U6_N16896981 N16928148
+  SRLATCHRHP_BASIC_GEN PARAMS: VDD=1 VSS=0 VTHRESH=0.5
X_U1_U6_U13         U1_PFM U1_U6_N16839029 INV_BASIC_GEN PARAMS: VDD=1 VSS=0
+  VTHRESH=500E-3
C_U1_U1_C3         SMPS1_2_FB_GND U1_U1_SS  80p  
C_U1_U1_C1         SMPS1_GND U1_U1_N48124  1n  TC=0,0 
G_U1_U1_ABMII3         SMPS1_IN U1_U1_SS VALUE { V(EN_MULT) * 75n    }
X_U1_U1_U8         U1_VREF U1_U1_N2245642 U1_U1_N2245664 PFM_EN_1_2
+  COMPHYS2_BASIC_GEN PARAMS: VDD=1 VSS=0 VTHRESH=0.5 T=10
E_U1_U1_E3         U1_U1_N2245564 SMPS1_GND U1_U1_SS SMPS1_2_FB_GND 1
E_U1_U1_E2         U1_U1_N47325 SMPS1_GND U1_U1_N48124 SMPS1_GND -200m
D_U1_U1_D33         U1_U1_SS SMPS1_IN D_D1 
X_U1_U1_U1         SMPS1_IN U1_U1_N00772 U1_U1_UVLO COMP_BASIC_GEN PARAMS:
+  VDD=1 VSS=0 VTHRESH=0.5
V_U1_U1_V8         U1_U1_N2245664 SMPS1_GND 2mV
R_U1_U1_R1         U1_U1_UVLO U1_U1_N48124  1 TC=0,0 
V_U1_U1_V1         U1_U1_N00772 U1_U1_N47325 2.5
V_U1_U1_V6         U1_U1_N2245642 SMPS1_GND 388mV
X_U1_U1_U2         SMPS_EN1_2 U1_U1_N01836 U1_U1_N01850 COMP_BASIC_GEN PARAMS:
+  VDD=1 VSS=0 VTHRESH=0.5
X_U1_U1_U34         U1_U1_UVLO U1_U1_N01850 EN_MULT AND2_BASIC_GEN PARAMS:
+  VDD=1 VSS=0 VTHRESH=500E-3
D_U1_U1_D34         SMPS1_2_FB_GND U1_U1_SS D_D1 
V_U1_U1_V2         U1_U1_N01836 SMPS1_GND 1.2
E_U1_U1_ABM4         U1_VREF 0 VALUE { if(V(U1_U1_N2245564)
+  >0.388,0.4,V(U1_U1_N2245564))    }
X_U1_U1_S4    U1_EN_INT_N SMPS1_GND U1_U1_SS SMPS1_GND
+  TPS659039-Q1_SMPS_EN_UVLO_SS_U1_U1_S4 
X_U1_U1_U4         EN_MULT U1_EN_INT_N INV_BASIC_GEN PARAMS: VDD=1 VSS=0
+  VTHRESH=500E-3
G_U1_U2_ABM2I1         SMPS1_GND U1_U2_N2222586 VALUE { LIMIT((V(VSEL_1_2) -
+  V(U1_U2_N2222712)) , 25u , -25u)    }
E_U1_U2_ABM4         U1_U2_N52942 0 VALUE {
+  if(V(U1_U2_N52768)-16<0,V(U1_U2_N52768),V(U1_U2_N52768)-16)    }
C_U1_U2_C1         SMPS1_GND U1_U2_N2222586  10n  TC=0,0 
E_U1_U2_ABM8         U1_U2_N53427 0 VALUE {
+  if(V(U1_U2_N53263)-4<0,V(U1_U2_N53263),V(U1_U2_N53263)-4)    }
E_U1_U2_ABM18         U1_U2_VSEL_INT 0 VALUE { if(V(DVS) >0.5,
+  V(U1_U2_N2222712) ,V(VSEL_1_2))    }
E_U1_U2_ABM2         U1_U2_N52768 0 VALUE {
+  if(V(U1_U2_N00069)-32<0,V(U1_U2_N00069),V(U1_U2_N00069)-32)    }
E_U1_U2_ABM14         U1_FB_INT 0 VALUE { if( V(SMPS1_GND)>0.5 ,
+  V(U1_U2_N59465) ,V(U1_U2_N59369))    }
X_U1_U2_S2    U1_U2_VOUT_1 SMPS1_GND U1_U2_N55059 U1_U2_N55164
+  TPS659039-Q1_SMPS_RS_U1_U2_S2 
E_U1_U2_ABM15         U1_U2_VOUT_0 0 VALUE { if(V(U1_U2_N53800)-0.5>0,0,1)    }
X_U1_U2_S1    U1_U2_VOUT_0 SMPS1_GND SMPS1_2_FB U1_U2_N55059
+  TPS659039-Q1_SMPS_RS_U1_U2_S1 
E_U1_U2_ABM16         U1_U2_N58463 0 VALUE { V(U1_U2_VOUT_6) }
E_U1_U2_ABM3         U1_U2_VOUT_6 0 VALUE { if(V(U1_U2_N00069)-32>0,0,1)    }
E_U1_U2_ABM9         U1_U2_VOUT_3 0 VALUE { if(V(U1_U2_N53263)-4>0,0,1)    }
E_U1_U2_ABM12         U1_U2_N53800 0 VALUE {
+  if(V(U1_U2_N53606)-1<0,V(U1_U2_N53606),V(U1_U2_N53606)-1)    }
R_U1_U2_R1         U1_U2_N59369 U1_U2_N58443  30k  
E_U1_U2_ABM1         U1_U2_N00069 0 VALUE { if(V(SMPS1_GND)
+  >0.5,(10*((V(U1_U2_VSEL_INT)/0.4)-1))-11.995,(20*((V(U1_U2_VSEL_INT)/0.4)-1))-1.995)}
X_U1_U2_S3    U1_U2_VOUT_2 SMPS1_GND U1_U2_N55164 U1_U2_N55281
+  TPS659039-Q1_SMPS_RS_U1_U2_S3 
X_U1_U2_S7    U1_U2_N58463 SMPS1_GND U1_U2_N55704 U1_U2_N58443
+  TPS659039-Q1_SMPS_RS_U1_U2_S7 
E_U1_U2_ABM5         U1_U2_VOUT_5 0 VALUE { if(V(U1_U2_N52768)-16>0,0,1)    }
E_U1_U2_ABM10         U1_U2_N53606 0 VALUE {
+  if(V(U1_U2_N53427)-2<0,V(U1_U2_N53427),V(U1_U2_N53427)-2)    }
R_U1_U2_R2         U1_U2_N59465 U1_U2_N59369  150k  
E_U1_U2_ABM13         U1_U2_VOUT_1 0 VALUE { if(V(U1_U2_N53606)-1>0,0,1)    }
E_U1_U2_ABM6         U1_U2_N53263 0 VALUE {
+  if(V(U1_U2_N52942)-8<0,V(U1_U2_N52942),V(U1_U2_N52942)-8)    }
E_U1_U2_E1         U1_U2_N2222712 SMPS1_GND U1_U2_N2222586 SMPS1_GND 1
R_U1_U2_R3         SMPS1_2_FB_GND U1_U2_N59465  150k  
X_U1_U2_S4    U1_U2_VOUT_3 SMPS1_GND U1_U2_N55281 U1_U2_N55410
+  TPS659039-Q1_SMPS_RS_U1_U2_S4 
R_U1_U2_R4         SMPS1_GND U1_U2_N2222586  1G  
E_U1_U2_ABM7         U1_U2_VOUT_4 0 VALUE { if(V(U1_U2_N52942)-8>0,0,1)    }
E_U1_U2_ABM11         U1_U2_VOUT_2 0 VALUE { if(V(U1_U2_N53427)-2>0,0,1)    }
X_U1_U2_S5    U1_U2_VOUT_4 SMPS1_GND U1_U2_N55410 U1_U2_N55551
+  TPS659039-Q1_SMPS_RS_U1_U2_S5 
X_U1_U2_S6    U1_U2_VOUT_5 SMPS1_GND U1_U2_N55551 U1_U2_N55704
+  TPS659039-Q1_SMPS_RS_U1_U2_S6 
E_U1_U4_SUM3         U1_U4_N16774563 0 VALUE {V(RAMP_OFFSET1)+V(RAMP_1)}
X_U1_U4_U10         U1_U4_N16777320 U1_PWM INV_BASIC_GEN PARAMS: VDD=1 VSS=0
+  VTHRESH=500E-3
X_U1_U4_U1         U1_U4_N16774563 EA_OUT_1 U1_U4_N16777320 COMP_BASIC_GEN
+  PARAMS: VDD=1 VSS=0 VTHRESH=0.5
V_U1_U7_V4         U1_U7_N16777228 SMPS1_GND 3.7Vdc
V_U1_U7_V11         U1_U7_N167772620 SMPS1_GND 2mVdc
V_U1_U7_V6         U1_U7_N16779957 SMPS1_GND 600m
C_U1_U7_C1         SMPS1_GND U1_U7_N16780222  1.414n  TC=0,0 
X_U1_U7_U16         CLK_1 U1_U7_N16777234 U1_U7_N16777131 AND2_BASIC_GEN
+  PARAMS: VDD=1 VSS=0 VTHRESH=500E-3
V_U1_U7_V10         U1_U7_N167773100 SMPS1_GND 5mVdc
X_U1_U7_U8         I_LO_1 U1_U7_N16778793 U1_U7_N167773100 U1_U7_N16777053
+  COMPHYS2_BASIC_GEN PARAMS: VDD=1 VSS=0 VTHRESH=0.5 T=10
X_U1_U7_U9         U1_U7_N16777228 I_LO_1 U1_U7_N16777234 COMP_BASIC_GEN
+  PARAMS: VDD=1 VSS=0 VTHRESH=0.5
X_U1_U7_U5         CLK_1 U1_U7_N16780222 U1_U7_N16780386 OR2_BASIC_GEN PARAMS:
+  VDD=1 VSS=0 VTHRESH=500E-3
R_U1_U7_R1         U1_OCP_LS U1_U7_N16780222  140 TC=0,0 
V_U1_U7_V5         U1_U7_N16778793 SMPS1_GND 4Vdc
X_U1_U7_U23         U1_U7_N16777053 U1_U7_N16777131 U1_OCP_MODE N16777712
+  SRLATCHRHP_BASIC_GEN PARAMS: VDD=1 VSS=0 VTHRESH=0.5
X_U1_U7_U27         U1_U7_N16779920 U1_U7_N16780386 U1_U7_N16778386 N16780571
+  SRLATCHRHP_BASIC_GEN PARAMS: VDD=1 VSS=0 VTHRESH=0.5
E_U1_U7_E1         U1_OCP_LS SMPS1_GND U1_U7_N16778386 SMPS1_GND 1
X_U1_U7_U22         U1_U7_N16777131 U1_U7_N16777053 U1_OCP_GATE N16777467
+  SRLATCHRHP_BASIC_GEN PARAMS: VDD=1 VSS=0 VTHRESH=0.5
X_U1_U7_U10         U1_I_LS U1_U7_N16779957 U1_U7_N167772620 U1_U7_N16779920
+  COMPHYS2_BASIC_GEN PARAMS: VDD=1 VSS=0 VTHRESH=0.5 T=10
R_U1_U5_R25         U1_U5_N167767331 U1_U5_N16670888  1  
E_U1_U5_ABM6         U1_U5_HO 0 VALUE { IF(V(U1_U5_N16705109)>0.5,
+  V(U1_U5_N03457), 0)    }
E_U1_U5_ABM4         U1_U5_N167767331 0 VALUE { IF(V(U1_PFM_SEL)>0.5,
+  V(U1_PFM), V(U1_U5_N16669492))    }
X_U1_U5_U5         U1_U5_N108 U1_LS_ODB U1_U5_N109 OR2_BASIC_GEN PARAMS: VDD=1
+  VSS=0 VTHRESH=500E-3
X_U1_U5_H2    SMPS1_IN U1_U5_N16706232 U1_U5_I_HS SMPS1_GND
+  TPS659039-Q1_SMPS_DRIVER_U1_U5_H2 