*$
* TPS62080A
*****************************************************************************
* (C) Copyright 2016 Texas Instruments Incorporated. All rights reserved.                                            
*****************************************************************************
** This model is designed as an aid for customers of Texas Instruments.
** TI and its licensors and suppliers make no warranties, either expressed
** or implied, with respect to this model, including the warranties of 
** merchantability or fitness for a particular purpose.  The model is
** provided solely on an "as is" basis.  The entire risk as to its quality
** and performance is with the customer
*****************************************************************************
*
* This model is subject to change without notice. Texas Instruments
* Incorporated is not responsible for updating this model.
*
*****************************************************************************
*
** Released by: WEBENCH Design Center, Texas Instruments Inc.
* Part: TPS62080A
* Date: 26JUL2016
* Model Type:  TRANSIENT
* Simulator: PSPICE
* Simulator Version: 16.2.0.p001
* EVM Order Number: TPS62080EVM-641
* EVM Users Guide: SLVU497A – August 2011 – Revised February 2012
* Datasheet: SLVSAE8E – SEPTEMBER 2011 – REVISED APRIL 2015
*
* Model Version: Final 1.10
*
*****************************************************************************
*
* Updates:
*
* Final 1.10
* Model functionality is corrected
* 1. PGOOD functionality
* 2. Frequency fit equation is added
*
* Final 1.00
* Release to Web.
*
*****************************************************************************
*
* Model Usage Notes:
*
* 1. The following features have been modeled
*      a. SNOOZE Mode
*      b. PowerGood
*	   c. Current limit protection
* 2. Temperature effects are not been modeled. 
* 
*
*****************************************************************************
.SUBCKT TPS62080A_TRANS VIN EN MODE GND PWPD PG VOS SW FB PARAMS: STEADY_STATE=0
X_U6         SDWN SDWN_N INV_BASIC_GEN PARAMS: VDD=1 VSS=0 VTHRESH=500E-3
R_R7         0 PWPD  1k  
R_U2_R4         U2_N14527 0  250k  
X_U2_U9         U2_N14352 U2_N10820 N127279 COMP_BASIC_GEN PARAMS: VDD=1 VSS=0
+  VTHRESH=0.5
X_U2_U11         DRVH_PRE U2_N12733 INV_BASIC_GEN PARAMS: VDD=1 VSS=0
+  VTHRESH=500E-3
C_U2_C3         0 U2_N14352  5p  
R_U2_R3         SW U2_N14527  750k  
R_U2_R1         U2_N10820 VIN  210k  
C_U2_C2         0 U2_N10820  4p  
X_U2_S1    U2_N12733 0 U2_N10820 0 Minton_U2_S1 
R_U2_R2         U2_N14527 U2_N14352  1.3MEG  
X_U1_U4         U1_N17124 U1_N17984 N38564 SOFTSTART SRLATCHRHP_BASIC_GEN
+  PARAMS: VDD=1 VSS=0 VTHRESH=0.5
R_U1_R10         0 U1_N03823  100MEG  
E_U1_ABM10         U1_N2P5 0 VALUE { ( 3.9017E-06*V(VIN)**2 - 3.5896E-05*V(VIN)
+  + 8.1936E-05) *V(IAVG)**4+   
+ ( -9.8458E-06*V(VIN)**2 + 9.0581E-05*V(VIN) - 2.0676E-04) *V(IAVG)**3+   
+ ( 9.5737E-06*V(VIN)**2 - 8.8078E-05*V(VIN) + 2.0105E-04) *V(IAVG)**2+   
+ ( -3.2166E-06*V(VIN)**2 + 2.9246E-05*V(VIN) - 6.5532E-05) *V(IAVG)+ (
+  4.0085E-07*V(VIN)**2 - 3.5504E-06*V(VIN) + 1.0091E-05) }
C_U1_C11         0 U1_VREF  900n  
E_U1_ABM12         U1_N2 0 VALUE { IF(V(VOS) > 2.25, 1 ,0)    }
R_U1_R2         U1_N00042 SW  333k  
R_U1_R3         0 U1_N00042  666k  
X_U1_S3    SDWN_N 0 U1_INNER_FB U1_INNER_REF ErrorAmp_U1_S3 
X_U1_S2    HS_ON 0 U1_N03823 U1_N01928 ErrorAmp_U1_S2 
C_U1_C1         U1_N136590 U1_N00223  14p  
C_U1_C3         U1_N01928 U1_INNER_REF  12p  
E_U1_GAIN1         U1_INNER_FB 0 VALUE {1 * V(U1_N00223)}
X_U1_U5         SDWN_N U1_N17984 INV_BASIC_GEN PARAMS: VDD=1 VSS=0
+  VTHRESH=500E-3
X_U1_U3         FB U1_N16375 U1_N17124 COMP_BASIC_GEN PARAMS: VDD=1 VSS=0
+  VTHRESH=0.5
R_U1_R8         VOS U1_N136590  450  
R_U1_R11         U1_INNER_REF 0  2.4G  
V_U1_V4         U1_N176121 0 0.45
C_U1_C9         0 U1_N149748  1n  
E_U1_ABM5         U1_N149688 0 VALUE { (1.169e-6*pwr(V(U1_N149728),3))+  
+ (-0.0014*pwr(V(U1_N149728),2))+  
+ (0.9899*V(U1_N149728))+  
+ 1000 }
C_U1_C8         0 U1_VCLAMP_OUT  1n  
V_U1_V2         U1_N16375 0 427.5m
R_U1_R15         U1_N149688 U1_N149748  1  
R_U1_R9         U1_N180922 U1_N180916  1  
E_U1_ABM6         U1_N149742 0 VALUE { {V(U1_N149748)*((1-(V(VIN)-2.5)/5.5))  
+ }   }
X_U1_U2         U1_INNER_REF U1_INNER_FB PWMIN COMP_BASIC_GEN PARAMS: VDD=1
+  VSS=0 VTHRESH=0.5
X_U1_U1         U1_N03823 U1_N04899 D_D11
C_U1_C2         FB VOS  4p  
X_U1_U6         U1_INNER_REF U1_N150298 D_D11
R_U1_R1         U1_N00223 U1_N00042  2MEG  
V_U1_V1         U1_N04899 0 6m
E_U1_ABM9         U1_NOP9 0 VALUE { ( 2.2466E-07*V(VIN)**3 -
+  2.5516E-06*V(VIN)**2 + 9.5270E-06*V(VIN) - 1.2046E-05) *V(IAVG)**3+  
+ ( -4.8140E-07*V(VIN)**3 + 5.5488E-06*V(VIN)**2 - 2.1141E-05*V(VIN) +
+  2.7547E-05) *V(IAVG)**2+  
+ ( 2.9126E-07*V(VIN)**3 - 3.3230E-06*V(VIN)**2 + 1.2473E-05*V(VIN) -
+  1.6172E-05) *V(IAVG)+  
+ ( -1.1751E-07*V(VIN)**3 + 1.3736E-06*V(VIN)**2 - 5.1576E-06*V(VIN) +
+  8.7273E-06) }
R_U1_R6         U1_INNER_REF U1_N02046  1MEG  
X_U1_U7         U1_VCLAMP U1_N25391 SOFTSTART U1_N35185 MUX2_BASIC_GEN PARAMS:
+  VDD=1 VSS=0 VTHRESH=0.5
C_U1_C7         0 U1_VCLAMP  1n  
R_U1_R17         U1_VREF U1_N176121  10  
G_U1_ABMII1         0 U1_INNER_REF VALUE { V(U1_VCLAMP_OUT)    }
C_U1_C123         0 U1_VEQN_1  1p  
C_U1_C6         0 U1_N25391  1n  
C_U1_C5         U1_VREF VIN  100n  
R_U1_R7         0 U1_N01928  4k  
E_U1_ABM4         U1_N31733 0 VALUE { LIMIT(((V(U1_N180922) -V(FB))*5.3u),  
+ 500n,-500n)   }
R_U1_R123         U1_N254942 U1_VEQN_1  1  
V_U1_V3         U1_N150298 0 4.5
X_U1_U8         PAUSE P100 U1_FBREF_SHORT OR2_BASIC_GEN PARAMS: VDD=1 VSS=0
+  VTHRESH=500E-3
R_U1_R12         U1_N27209 U1_N25391  1  
E_U1_ABM7         U1_N180916 0 VALUE { IF(V(SDWN_N) < 0.5,0,V(U1_VREF))    }
C_U1_C4         0 U1_N180922  1n  
E_U1_ABM11         U1_N254942 0 VALUE { V(U1_NOP9)*(1-V(U1_N2))+
+  V(U1_N2P5)*V(U1_N2)    }
R_U1_R13         U1_VCLAMP U1_N31733  1  
G_U1_ABMII2         U1_N04899 U1_N03823 VALUE { IF(V(SOFTSTART)>0.5, 2u,
+  V(U1_VEQN_1) )    }
R_U1_R14         U1_N35185 U1_VCLAMP_OUT  1  
C_U1_C10         0 U1_VEQN  1n  
E_U1_GAIN2         U1_N149728 0 VALUE {1E3 * V(IAVG)}
E_U1_ABM3         U1_N27209 0 VALUE { IF(V(U1_VCLAMP) > 125n, 125n,  
+ IF (V(U1_VCLAMP) <-125n,  
+ -125n,V(U1_VCLAMP)))  }
R_U1_R16         U1_N149742 U1_VEQN  1  
X_U1_S1    U1_FBREF_SHORT 0 U1_INNER_FB U1_N02046 ErrorAmp_U1_S1 
R_R4         0 EN  7.2MEG  
X_U11_U15         EN_UVLO U11_N16806934 INV_BASIC_GEN PARAMS: VDD=1 VSS=0
+  VTHRESH=500E-3
X_U11_U14         U11_N16806828 U11_N16806957 INV_BASIC_GEN PARAMS: VDD=1 VSS=0
+  VTHRESH=500E-3
X_U11_U28         MODE_LOGIC U11_N16806828 U11_N16806934 SNOOZE AND3_BASIC_GEN
+  PARAMS: VDD=1 VSS=0 VTHRESH=500E-3
E_U11_ABM7         U11_N16806832 0 VALUE { IF( V(MODE_LOGIC) > 0.5,  
+ V(FB), 1)   }
X_U11_U27         U11_N16806832 U11_N16806844 U11_N16806862 U11_N16806828
+  COMPHYS_BASIC_GEN PARAMS: VDD=1 VSS=0 VTHRESH=0.5
X_U11_U29         U11_N16806934 U11_N16806957 MODE_LOGIC WAKE AND3_BASIC_GEN
+  PARAMS: VDD=1 VSS=0 VTHRESH=500E-3
V_U11_V1         U11_N16806844 0 0.4725
V_U11_V2         U11_N16806862 0 45m
X_U4         MIN_TOFF MIN_TOFF_N INV_BASIC_GEN PARAMS: VDD=1 VSS=0
+  VTHRESH=500E-3
V_U3_V5         U3_N11301 0 1.2
X_U3_U11         DRVL_PRE U3_N12733 INV_BASIC_GEN PARAMS: VDD=1 VSS=0
+  VTHRESH=500E-3
X_U3_U10         U3_N10820 U3_N11301 D_D11
X_U3_U9         U3_N13984 U3_N10820 MIN_TOFF COMP_BASIC_GEN PARAMS: VDD=1 VSS=0
+  VTHRESH=0.5
I_U3_I1         U3_N11301 U3_N10820 DC 8u  
X_U3_S1    U3_N12733 0 U3_N10820 0 Mintoff_U3_S1 
V_U3_V4         U3_N13984 0 667m
C_U3_C2         0 U3_N10820  480f  
X_U30_U12         U30_N115167 U30_HS_RST D_D11
R_U30_R1         U30_N115167 U30_HS_RST  800  
X_U30_U14         HS_ON U30_HS_ON_N INV_BASIC_GEN PARAMS: VDD=1 VSS=0
+  VTHRESH=500E-3
X_U30_U10         U30_N115115 MIN_TON_N U30_N115119 AND2_BASIC_GEN PARAMS:
+  VDD=1 VSS=0 VTHRESH=500E-3
X_U30_U26         U30_N116057 P100 BUF_BASIC_GEN PARAMS: VDD=1 VSS=0
+  VTHRESH=0.5
R_U30_R2         0 U30_N115047  10k  
X_U30_U24         PWMIN U30_N116211 U30_PWM AND2_BASIC_GEN PARAMS: VDD=1 VSS=0
+  VTHRESH=500E-3
X_U30_U9         U30_PWM U30_N115115 INV_BASIC_GEN PARAMS: VDD=1 VSS=0
+  VTHRESH=500E-3
X_U30_U16         U30_N116131 U30_N116157 SDWN_N U30_LS_SET AND3_BASIC_GEN
+  PARAMS: VDD=1 VSS=0 VTHRESH=500E-3
R_U30_R3         U30_N116053 U30_N116057  144k  
X_U30_U11         CLIMIT_HS U30_N115119 SDWN U30_N115167 OR3_BASIC_GEN PARAMS:
+  VDD=1 VSS=0 VTHRESH=500E-3
E_U30_GAIN1         U30_N116053 0 VALUE {1 * V(HS_ON)}
C_U30_C2         0 U30_N116057  100p  
X_U30_U17         CAPRIO U30_N116157 INV_BASIC_GEN PARAMS: VDD=1 VSS=0
+  VTHRESH=500E-3
X_U30_U21         CAPRIO SDWN U30_N115159 U30_LS_RST OR3_BASIC_GEN PARAMS:
+  VDD=1 VSS=0 VTHRESH=500E-3
X_U30_U22         MIN_TOFF_N U30_PWM U30_N115159 AND2_BASIC_GEN PARAMS: VDD=1
+  VSS=0 VTHRESH=500E-3
C_U30_C1         0 U30_HS_RST  10p  
X_U30_U7         U30_LS_ON_PRE SDWN_N U30_PWM U30_HS_SET AND3_BASIC_GEN PARAMS:
+  VDD=1 VSS=0 VTHRESH=500E-3
X_U30_U18         U30_LS_SET U30_LS_RST U30_N116029 U30_LS_ON_PRE
+  SRLATCHRHP_BASIC_GEN PARAMS: VDD=1 VSS=0 VTHRESH=0.5
X_U30_U19         U30_N116057 U30_N116053 D_D11
X_U30_U8         U30_HS_SET U30_HS_RST HS_ON U30_N115047 SRLATCHRHP_BASIC_GEN
+  PARAMS: VDD=1 VSS=0 VTHRESH=0.5
X_U30_U15         U30_HS_ON_N U30_N116029 LS_ON AND2_BASIC_GEN PARAMS: VDD=1
+  VSS=0 VTHRESH=500E-3
X_U30_U20         LS_ON U30_LS_ON_N INV_BASIC_GEN PARAMS: VDD=1 VSS=0
+  VTHRESH=500E-3
X_U30_U25         CLIMIT_LS SDWN U30_N116175 OR2_BASIC_GEN PARAMS: VDD=1 VSS=0
+  VTHRESH=500E-3
X_U30_U23         CLIMIT_HS U30_N116175 N122651 U30_N116211
+  SRLATCHRHP_BASIC_GEN PARAMS: VDD=1 VSS=0 VTHRESH=0.5
X_U30_U13         U30_HS_ON_N U30_N115115 U30_N116131 AND2_BASIC_GEN PARAMS:
+  VDD=1 VSS=0 VTHRESH=500E-3
R_R5         0 MODE  7.2MEG  
X_U3         N127279 MIN_TON_N INV_BASIC_GEN PARAMS: VDD=1 VSS=0 VTHRESH=500E-3
C_U6_C4         0 U6_N16592  100p  
X_U6_U16         WAKE U6_N16390 INV_BASIC_GEN PARAMS: VDD=1 VSS=0
+  VTHRESH=500E-3
X_U6_U18         DRVH_PRE DRVL_PRE U6_N17195 NOR2_BASIC_GEN PARAMS: VDD=1 VSS=0
+  VTHRESH=500E-3
X_U6_U15         U6_N16390 U6_N16592 PAUSE AND2_BASIC_GEN PARAMS: VDD=1 VSS=0
+  VTHRESH=500E-3
C_U6_C3         0 U6_N13806  1n  
X_U6_U12         SW U6_N13806 U6_N14289 COMP_BASIC_GEN PARAMS: VDD=1 VSS=0
+  VTHRESH=0.5
R_U6_R3         U6_N17195 U6_N16592  360  
E_U6_ABM1         U6_N13835 0 VALUE { IF(V(WAKE) > 0.5, 208.5m,-1.5m)    }
X_U6_U14         U6_N15145 DRVH_PRE CAPRIO U6_N20123 SRLATCHRHP_BASIC_GEN
+  PARAMS: VDD=1 VSS=0 VTHRESH=0.5
R_U6_R1         U6_N13835 U6_N13806  1  
X_U6_U17         U6_N16592 U6_N17195 D_D11
R_U6_R4         0 U6_N20123  10k  
X_U6_U13         DRVL_PRE U6_N14289 U6_N15145 AND2_BASIC_GEN PARAMS: VDD=1
+  VSS=0 VTHRESH=500E-3
X_U5_U5         VIN U5_N03743 U5_OUT COMP_BASIC_GEN PARAMS: VDD=1 VSS=0
+  VTHRESH=0.5
E_U5_ABM2         U5_N2198111 0 VALUE { ((V(U5_OUT)*-120m) + 1.92)    }
X_U5_U8         U5_N03815 EN_LOGIC D_D11
R_U5_R1         EN_LOGIC U5_N03815  56k  
X_U5_U2         DRVL_PRE U5_N03489 CLIMIT_LS AND2_BASIC_GEN PARAMS: VDD=1 VSS=0
+  VTHRESH=500E-3
V_U5_V3         U5_N12138 0  
+PULSE {STEADY_STATE} 1 1u 10n 10n 1000 2000
V_U5_V1         U5_N11335 0 1.95
R_U5_R3         U5_N2198111 U5_N03743  1  
C_U5_C3         0 U5_N03743  1n  
X_U5_U26         U5_N96308 EN_UVLO INV_BASIC_GEN PARAMS: VDD=1 VSS=0
+  VTHRESH=500E-3
V_U5_V2         U5_N03621 0 2.45
X_U5_U1         U5_N11335 ISENSE_LS U5_N03489 COMP_BASIC_GEN PARAMS: VDD=1
+  VSS=0 VTHRESH=0.5
X_U5_U3         ISENSE_HS U5_N03621 U5_N03655 COMP_BASIC_GEN PARAMS: VDD=1
+  VSS=0 VTHRESH=0.5
X_U5_U7         EN_LOGIC U5_N03815 U5_N03773 AND2_BASIC_GEN PARAMS: VDD=1 VSS=0
+  VTHRESH=500E-3
C_U5_C1         0 U5_N03815  1n  
X_U5_U4         U5_N03655 DRVH_PRE CLIMIT_HS AND2_BASIC_GEN PARAMS: VDD=1 VSS=0
+  VTHRESH=500E-3
X_U5_U9         U5_OUT U5_N03773 U5_N12138 U5_N96308 AND3_BASIC_GEN PARAMS:
+  VDD=1 VSS=0 VTHRESH=500E-3
X_U5_U25         EN_UVLO SNOOZE SDWN OR2_BASIC_GEN PARAMS: VDD=1 VSS=0
+  VTHRESH=500E-3
R_R6         0 GND  1k  
R_U7_R2         0 ISENSE_LS  1k  
V_U7_V2         SW U7_N12326 545m
C_U7_C2         0 U7_N20595  1n  
X_U7_U5         U7_N00730 U7_N11135 d_d1special PARAMS:
X_U7_H2    U7_N00730 0 0 ISENSE_LS Driver_U7_H2 
X_U7_U4         LS_ON U7_N00587 BUF_DELAY_BASIC_GEN PARAMS: VDD=1 VSS=0
+  VTHRESH=0.5 DELAY=2n
C_U7_C3         0 U7_N23865  1n  
R_U7_R4         U7_N122170 U7_N20595  1  
X_U7_H1    VIN U7_N00276 ISENSE_HS 0 Driver_U7_H1 
X_U7_U8         0 U7_N23865 DRVL_PRE U7_NMOS_CTRL MUX2_BASIC_GEN PARAMS: VDD=1
+  VSS=0 VTHRESH=0.5
X_U7_U1         HS_ON U7_N00082 BUF_DELAY_BASIC_GEN PARAMS: VDD=1 VSS=0
+  VTHRESH=0.5 DELAY=2n
X_U7_S2    U7_NMOS_CTRL 0 SW U7_N00730 Driver_U7_S2 
R_U7_R5         U7_N127027 U7_N23865  1  
R_U7_R7         IAVG U7_N116419  10k  
E_U7_ABM3         U7_N127027 0 VALUE { 1m*((-298.814/(V(VIN)+1.099))+873.722)  
+   }
X_U7_U2         HS_ON U7_N00082 DRVH_PRE AND2_BASIC_GEN PARAMS: VDD=1 VSS=0
+  VTHRESH=500E-3
C_U7_C10         0 IAVG  1n  
X_U7_S1    U7_PMOS_CTRL 0 U7_N00276 SW Driver_U7_S1 
R_U7_R1         0 ISENSE_HS  1k  
E_U7_ABM2         U7_N116419 0 VALUE { {{IF(V(DRVH_PRE) >
+  0.5,V(ISENSE_HS),V(ISENSE_LS))  
+ }  
+ }  }
V_U7_V1         U7_N11135 SW 545m
X_U7_U6         U7_N12326 U7_N00276 d_d1special PARAMS:
E_U7_ABM4         U7_N122170 0 VALUE { 1m*((-160.656/(V(VIN) - 0.193))+842.766)
+     }
X_U7_U3         LS_ON U7_N00587 DRVL_PRE AND2_BASIC_GEN PARAMS: VDD=1 VSS=0
+  VTHRESH=500E-3
X_U7_S3    EN_UVLO 0 SW 0 Driver_U7_S3 
X_U7_U7         0 U7_N20595 DRVH_PRE U7_PMOS_CTRL MUX2_BASIC_GEN PARAMS: VDD=1
+  VSS=0 VTHRESH=0.5
C_U4_C1         0 EN_LOGIC  1n  
R_U4_R2         U4_N15867 MODE_LOGIC  1  
E_U4_ABM1         U4_N15535 0 VALUE { IF(V(EN) > 0.9,1,0)    }
C_U4_C2         0 MODE_LOGIC  1n  
R_U4_R1         U4_N15535 EN_LOGIC  1  
E_U4_ABM2         U4_N15867 0 VALUE { IF(V(MODE) > 0.9,1,0)    }
X_U10_U6         FB U10_N16764572 U10_N16764528 COMP_BASIC_GEN PARAMS: VDD=1
+  VSS=0 VTHRESH=0.5
R_U10_R5         U10_N167667531 U10_N16764572  1  
X_U10_U7         U10_N16764528 EN_UVLO U10_N16636991 NOR2_BASIC_GEN PARAMS:
+  VDD=1 VSS=0 VTHRESH=500E-3
R_U10_R7         0 PG  1G  
E_U10_ABM4         U10_N167667531 0 VALUE { (-(V(U10_N16764528) *0.0225) +
+  0.4275)    }
X_U10_S19    U10_N16636991 0 PG 0 PowerGood_mod_U10_S19 
C_U10_C5         0 U10_N16764572  1n  
.ENDS TPS62080A_TRANS
*$
.subckt Minton_U2_S1 1 2 3 4  
S_U2_S1         3 4 1 2 _U2_S1
RS_U2_S1         1 2 1G
.MODEL         _U2_S1 VSWITCH Roff=100e6 Ron=1 Voff=0.2 Von=0.8
.ends Minton_U2_S1
*$
.subckt ErrorAmp_U1_S3 1 2 3 4  
S_U1_S3         3 4 1 2 _U1_S3
RS_U1_S3         1 2 1G
.MODEL         _U1_S3 VSWITCH Roff=1 Ron=10G Voff=0.2V Von=0.9V
.ends ErrorAmp_U1_S3
*$
.subckt ErrorAmp_U1_S2 1 2 3 4  
S_U1_S2         3 4 1 2 _U1_S2
RS_U1_S2         1 2 1G
.MODEL         _U1_S2 VSWITCH Roff=100e6 Ron=1m Voff=0.4V Von=0.8V
.ends ErrorAmp_U1_S2
*$
.subckt ErrorAmp_U1_S1 1 2 3 4  
S_U1_S1         3 4 1 2 _U1_S1
RS_U1_S1         1 2 1G
.MODEL         _U1_S1 VSWITCH Roff=1000e6 Ron=1m Voff=0.4V Von=0.8V
.ends ErrorAmp_U1_S1
*$
.subckt Mintoff_U3_S1 1 2 3 4  
S_U3_S1         3 4 1 2 _U3_S1
RS_U3_S1         1 2 1G
.MODEL         _U3_S1 VSWITCH Roff=10e6 Ron=1.0 Voff=0.2 Von=0.8
.ends Mintoff_U3_S1
*$
.subckt Driver_U7_H2 1 2 3 4  
H_U7_H2         3 4 VH_U7_H2 1
VH_U7_H2         1 2 0V
.ends Driver_U7_H2
*$
.subckt Driver_U7_H1 1 2 3 4  
H_U7_H1         3 4 VH_U7_H1 1
VH_U7_H1         1 2 0V
.ends Driver_U7_H1
*$
.subckt Driver_U7_S2 1 2 3 4  
S_U7_S2         3 4 1 2 _U7_S2
RS_U7_S2         1 2 1G
.MODEL         _U7_S2 VSWITCH Roff=10e6 Ron=10m Voff=0 Von=1
.ends Driver_U7_S2
*$
.subckt Driver_U7_S1 1 2 3 4  
S_U7_S1         3 4 1 2 _U7_S1
RS_U7_S1         1 2 1G
.MODEL         _U7_S1 VSWITCH Roff=10e6 Ron=10m Voff=0 Von=1
.ends Driver_U7_S1
*$
.subckt Driver_U7_S3 1 2 3 4  
S_U7_S3         3 4 1 2 _U7_S3
RS_U7_S3         1 2 1G
.MODEL         _U7_S3 VSWITCH Roff=100e6 Ron=50 Voff=0.2 Von=0.8
.ends Driver_U7_S3
*$
.subckt PowerGood_mod_U10_S19 1 2 3 4  
S_U10_S19         3 4 1 2 _U10_S19
RS_U10_S19         1 2 1G
.MODEL         _U10_S19 VSWITCH Roff=100e6 Ron=50 Voff=0.2 Von=0.8
.ends PowerGood_mod_U10_S19
*$
.MODEL D_D1 D( IS=1e-15 TT=10p Rs=0.05 N=.1  )
*$
.SUBCKT D_D1special 1 2
D1 1 2 DD1spec
.MODEL DD1spec D( IS=1e-15 TT=10p Rs=0.23 N=.1  )
.ENDS D_D1special
*$
.SUBCKT COMP_BASIC_GEN INP INM Y PARAMS: VDD=1 VSS=0 VTHRESH=0.5	
E_ABM Yint 0 VALUE {IF (V(INP) >
+ V(INM), {VDD},{VSS})}
R1 Yint Y 1
C1 Y 0 1n
.ENDS COMP_BASIC_GEN
*$
.SUBCKT COMPHYS_BASIC_GEN INP INM HYS OUT PARAMS: VDD=1 VSS=0 VTHRESH=0.5	
EIN INP1 INM1 INP INM 1
EHYS INP1 INP2 VALUE { IF( V(1) > {VTHRESH},-V(HYS),0) }
EOUT OUT 0 VALUE { IF( V(INP2)>V(INM1), {VDD} ,{VSS}) }
R1 OUT 1 1
C1 1 0 5n
RINP1 INP1 0 1K
.ENDS COMPHYS_BASIC_GEN
*$
.SUBCKT AND2_BASIC_GEN A B Y PARAMS: VDD=1 VSS=0 VTHRESH=0.5
E_ABMGATE    YINT 0 VALUE {{IF(V(A) > {VTHRESH}  &
+ V(B) > {VTHRESH},{VDD},{VSS})}}
RINT YINT Y 1
CINT Y 0 1n
.ENDS AND2_BASIC_GEN
*$
.SUBCKT AND3_BASIC_GEN A B C Y PARAMS: VDD=1 VSS=0 VTHRESH=0.5
E_ABMGATE    YINT 0 VALUE {{IF(V(A) > {VTHRESH}  &
+ V(B) > {VTHRESH} &
+ V(C) > {VTHRESH},{VDD},{VSS})}}
RINT YINT Y 1
CINT Y 0 1n
.ENDS AND3_BASIC_GEN
*$
.SUBCKT AND4_BASIC_GEN A B C D Y PARAMS: VDD=1 VSS=0 VTHRESH=0.5
E_ABMGATE    YINT 0 VALUE {{IF(V(A) > {VTHRESH}  &
+ V(B) > {VTHRESH} &
+ V(C) > {VTHRESH} &
+ V(D) > {VTHRESH},{VDD},{VSS})}}
RINT YINT Y 1
CINT Y 0 1n
.ENDS AND4_BASIC_GEN
*$
.SUBCKT NAND2_BASIC_GEN A B Y PARAMS: VDD=1 VSS=0 VTHRESH=0.5
E_ABMGATE    YINT 0 VALUE {{IF(V(A) > {VTHRESH}  &
+ V(B) > {VTHRESH},{VSS},{VDD})}}
RINT YINT Y 1
CINT Y 0 1n
.ENDS NAND2_BASIC_GEN
*$
.SUBCKT NAND3_BASIC_GEN A B C Y PARAMS: VDD=1 VSS=0 VTHRESH=0.5
E_ABMGATE    YINT 0 VALUE {{IF(V(A) > {VTHRESH}  &
+ V(B) > {VTHRESH} &
+ V(C) > {VTHRESH},{VSS},{VDD})}}
RINT YINT Y 1
CINT Y 0 1n
.ENDS NAND3_BASIC_GEN
*$
.SUBCKT NAND4_BASIC_GEN A B C D Y PARAMS: VDD=1 VSS=0 VTHRESH=0.5
E_ABMGATE    YINT 0 VALUE {{IF(V(A) > {VTHRESH}  &
+ V(B) > {VTHRESH} &
+ V(C) > {VTHRESH} &
+ V(D) > {VTHRESH},{VSS},{VDD})}}
RINT YINT Y 1
CINT Y 0 1n
.ENDS NAND4_BASIC_GEN
*$
.SUBCKT OR2_BASIC_GEN A B Y PARAMS: VDD=1 VSS=0 VTHRESH=0.5
E_ABMGATE    YINT 0 VALUE {{IF(V(A) > {VTHRESH}  |
+ V(B) > {VTHRESH},{VDD},{VSS})}}
RINT YINT Y 1
CINT Y 0 1n
.ENDS OR2_BASIC_GEN
*$
.SUBCKT OR3_BASIC_GEN A B C Y PARAMS: VDD=1 VSS=0 VTHRESH=0.5
E_ABMGATE    YINT 0 VALUE {{IF(V(A) > {VTHRESH}  |
+ V(B) > {VTHRESH} |
+ V(C) > {VTHRESH},{VDD},{VSS})}}
RINT YINT Y 1
CINT Y 0 1n
.ENDS OR3_BASIC_GEN
*$
.SUBCKT OR4_BASIC_GEN A B C D Y PARAMS: VDD=1 VSS=0 VTHRESH=0.5
E_ABMGATE    YINT 0 VALUE {{IF(V(A) > {VTHRESH}  |
+ V(B) > {VTHRESH} |
+ V(C) > {VTHRESH} |
+ V(D) > {VTHRESH},{VDD},{VSS})}}
RINT YINT Y 1
CINT Y 0 1n
.ENDS OR4_BASIC_GEN
*$
.SUBCKT NOR2_BASIC_GEN A B Y PARAMS: VDD=1 VSS=0 VTHRESH=0.5
E_ABMGATE    YINT 0 VALUE {{IF(V(A) > {VTHRESH}  |
+ V(B) > {VTHRESH},{VSS},{VDD})}}
RINT YINT Y 1
CINT Y 0 1n
.ENDS NOR2_BASIC_GEN
*$
.SUBCKT NOR3_BASIC_GEN A B C Y PARAMS: VDD=1 VSS=0 VTHRESH=0.5
E_ABMGATE    YINT 0 VALUE {{IF(V(A) > {VTHRESH}  |
+ V(B) > {VTHRESH} |
+ V(C) > {VTHRESH},{VSS},{VDD})}}
RINT YINT Y 1
CINT Y 0 1n
.ENDS NOR3_BASIC_GEN
*$
.SUBCKT NOR4_BASIC_GEN A B C D Y PARAMS: VDD=1 VSS=0 VTHRESH=0.5
E_ABMGATE    YINT 0 VALUE {{IF(V(A) > {VTHRESH}  |
+ V(B) > {VTHRESH} |
+ V(C) > {VTHRESH} |
+ V(D) > {VTHRESH},{VSS},{VDD})}}
RINT YINT Y 1
CINT Y 0 1n
.ENDS NOR4_BASIC_GEN
*$
.SUBCKT NOR5_BASIC_GEN A B C D E Y PARAMS: VDD=1 VSS=0 VTHRESH=0.5
E_ABMGATE YINT 0 VALUE {{IF(V(A) > {VTHRESH}  |
+ V(B) > {VTHRESH} |
+ V(C) > {VTHRESH} |
+ V(D) > {VTHRESH} |
+ V(E) > {VTHRESH},{VSS},{VDD})}}
RINT YINT Y 1
CINT Y 0 1n
.ENDS NOR5_BASIC_GEN
*$
.SUBCKT NOR6_BASIC_GEN A B C D E F Y PARAMS: VDD=1 VSS=0 VTHRESH=0.5
E_ABMGATE YINT 0 VALUE {{IF(V(A) > {VTHRESH}  |
+ V(B) > {VTHRESH} |
+ V(C) > {VTHRESH} |
+ V(D) > {VTHRESH} |
+ V(E) > {VTHRESH} |
+ V(F) > {VTHRESH},{VSS},{VDD})}}
RINT YINT Y 1
CINT Y 0 1n
.ENDS NOR6_BASIC_GEN
*$
.SUBCKT INV_BASIC_GEN A  Y PARAMS: VDD=1 VSS=0 VTHRESH=0.5
E_ABMGATE    YINT 0 VALUE {{IF(V(A) > {VTHRESH} ,
+ {VSS},{VDD})}}
RINT YINT Y 1
CINT Y 0 1n
.ENDS INV_BASIC_GEN
*$
.SUBCKT XOR2_BASIC_GEN A B Y PARAMS: VDD=1 VSS=0 VTHRESH=0.5
E_ABMGATE  YINT 0 VALUE {{IF(V(A) > {VTHRESH}  ^
+ V(B) > {VTHRESH},{VDD},{VSS})}}
RINT YINT Y 1
CINT Y 0 1n
.ENDS XOR2_BASIC_GEN
*$
.SUBCKT XNOR2_BASIC_GEN A B Y PARAMS: VDD=1 VSS=0 VTHRESH=0.5
E_ABMGATE  YINT 0 VALUE {{IF(V(A) > {VTHRESH}  ^
+ V(B) > {VTHRESH},{VSS},{VDD})}}
RINT YINT Y 1
CINT Y 0 1n
.ENDS XNOR2_BASIC_GEN
*$
.SUBCKT MUX2_BASIC_GEN A B S Y PARAMS: VDD=1 VSS=0 VTHRESH=0.5
E_ABMGATE  YINT 0 VALUE {{IF(V(S) > {VTHRESH},
+ V(B),V(A))}}
RINT YINT Y 1
CINT Y 0 1n
.ENDS MUX2_BASIC_GEN
*$
.SUBCKT INV_DELAY_BASIC_GEN A  Y PARAMS: VDD=1 VSS=0 VTHRESH=0.5 DELAY = 10n
E_ABMGATE1    YINT1 0 VALUE {{IF(V(A) > {VTHRESH} ,
+ {VDD},{VSS})}}
RINT YINT1 YINT2 1
CINT YINT2 0 {DELAY*1.3}
E_ABMGATE2    YINT3 0 VALUE {{IF(V(YINT2) > {VTHRESH} ,
+ {VSS},{VDD})}}
RINT2 YINT3 Y 1
CINT2 Y 0 1n
.ENDS INV_DELAY_BASIC_GEN
*$
.SUBCKT BUF_DELAY_BASIC_GEN A  Y PARAMS: VDD=1 VSS=0 VTHRESH=0.5 DELAY = 10n
E_ABMGATE1    YINT1 0 VALUE {{IF(V(A) > {VTHRESH} ,
+ {VDD},{VSS})}}
RINT YINT1 YINT2 1
CINT YINT2 0 {DELAY*1.3}
E_ABMGATE2    YINT3 0 VALUE {{IF(V(YINT2) > {VTHRESH} ,
+ {VDD},{VSS})}}
RINT2 YINT3 Y 1
CINT2 Y 0 1n
.ENDS BUF_DELAY_BASIC_GEN
*$
.SUBCKT BUF_BASIC_GEN A  Y PARAMS: VDD=1 VSS=0 VTHRESH=0.5
E_ABMGATE    YINT 0 VALUE {{IF(V(A) > {VTHRESH} ,
+ {VDD},{VSS})}}
RINT YINT Y 1
CINT Y 0 1n
.ENDS BUF_BASIC_GEN
*$
.SUBCKT SRLATCHSHP_BASIC_GEN S R Q QB PARAMS: VDD=1 VSS=0 VTHRESH=0.5
GQ 0 Qint VALUE = {IF(V(S) > {VTHRESH},5,IF(V(R)>{VTHRESH},-5, 0))}
CQint Qint 0 1n
RQint Qint 0 1000MEG
D_D10 Qint MY5 D_D1
V1 MY5 0 {VDD}
D_D11 MYVSS Qint D_D1
V2 MYVSS 0 {VSS}
EQ Qqq 0 Qint 0 1
X3 Qqq Qqqd1 BUF_BASIC_GEN PARAMS: VDD={VDD} VSS={VSS} VTHRESH={VTHRESH}
RQq Qqqd1 Q 1
EQb Qbr 0 VALUE = {IF( V(Q) > {VTHRESH}, {VSS},{VDD})}
RQb Qbr QB 1
Cdummy1 Q 0 1n
Cdummy2 QB 0 1n
.IC V(Qint) {VSS}
.ENDS SRLATCHSHP_BASIC_GEN
*$
.SUBCKT SRLATCHRHP_BASIC_GEN S R Q QB PARAMS: VDD=1 VSS=0 VTHRESH=0.5
GQ 0 Qint VALUE = {IF(V(R) > {VTHRESH},-5,IF(V(S)>{VTHRESH},5, 0))}
CQint Qint 0 1n
RQint Qint 0 1000MEG
D_D10 Qint MY5 D_D1
V1 MY5 0 {VDD}
D_D11 MYVSS Qint D_D1
V2 MYVSS 0 {VSS}
EQ Qqq 0 Qint 0 1
X3 Qqq Qqqd1 BUF_BASIC_GEN PARAMS: VDD={VDD} VSS={VSS} VTHRESH={VTHRESH}
RQq Qqqd1 Q 1
EQb Qbr 0 VALUE = {IF( V(Q) > {VTHRESH}, {VSS},{VDD})}
RQb Qbr QB 1
Cdummy1 Q 0 1n
Cdummy2 QB 0 1n
.IC V(Qint) {VSS}
.ENDS SRLATCHRHP_BASIC_GEN
*$
.SUBCKT SBRBLATCHRHP_BASIC_GEN SB RB Q QB PARAMS: VDD=1 VSS=0 VTHRESH=0.5
GQ 0 Qint VALUE = {IF(V(RB) < {VTHRESH},-5,IF(V(SB) < {VTHRESH},5, 0))}
CQint Qint 0 1n
RQint Qint 0 1000MEG
D_D10 Qint MY5 D_D1
V1 MY5 0 {VDD}
D_D11 MYVSS Qint D_D1
V2 MYVSS 0 {VSS}
EQ Qqq 0 Qint 0 1
X3 Qqq Qqqd1 BUF_BASIC_GEN PARAMS: VDD={VDD} VSS={VSS} VTHRESH={VTHRESH}
RQq Qqqd1 Q 1
EQb Qbr 0 VALUE = {IF( V(Q) > {VTHRESH}, {VSS},{VDD})}
RQb Qbr QB 1
.IC V(Qint) {VSS}
.ENDS SBRBLATCHRHP_BASIC_GEN
*$
.SUBCKT SBRBLATCHSHP_BASIC_GEN SB RB Q QB PARAMS: VDD=1 VSS=0 VTHRESH=0.5
GQ 0 Qint VALUE = {IF(V(SB) < {VTHRESH},5,IF(V(RB) < {VTHRESH},-5, 0))}
CQint Qint 0 1n
RQint Qint 0 1000MEG
D_D10 Qint MY5 D_D1
V1 MY5 0 {VDD}
D_D11 MYVSS Qint D_D1
V2 MYVSS 0 {VSS}
EQ Qqq 0 Qint 0 1
X3 Qqq Qqqd1 BUF_BASIC_GEN PARAMS: VDD={VDD} VSS={VSS} VTHRESH={VTHRESH}
RQq Qqqd1 Q 1
EQb Qbr 0 VALUE = {IF( V(Q) > {VTHRESH}, {VSS},{VDD})}
RQb Qbr QB 1
.IC V(Qint) {VSS}
.ENDS SBRBLATCHSHP_BASIC_GEN
*$
.SUBCKT DFFSBRB_SHPBASIC_GEN Q QB CLK D RB SB PARAMS: VDD=1 VSS=0 VTHRESH=0.5
X1 CLK CLKdel INV_DELAY_BASIC_GEN PARAMS: VDD={VDD} VSS={VSS} VTHRESH={VTHRESH} DELAY = 15n
X2 CLK CLKdel CLKint AND2_BASIC_GEN PARAMS: VDD={VDD} VSS={VSS} VTHRESH={VTHRESH}
GQ 0 Qint VALUE = {IF(V(SB) < {VTHRESH},5,IF(V(RB)<{VTHRESH},-5, IF(V(CLKint)> {VTHRESH},
+ IF(V(D)> {VTHRESH},5,-5),0)))}
CQint Qint 0 1n
RQint Qint 0 1000MEG
D_D10 Qint MY5 D_D1
V1 MY5 0 {VDD}
D_D11 MYVSS Qint D_D1
V2 MYVSS 0 {VSS}
EQ Qqq 0 Qint 0 1
X3 Qqq Qqqd1 BUF_DELAY_BASIC_GEN PARAMS: VDD={VDD} VSS={VSS} VTHRESH={VTHRESH} DELAY = 20n
RQq Qqqd1 Q 1
EQb Qbr 0 VALUE = {IF( V(Q) > {VTHRESH}, {VSS},{VDD})}
RQb Qbr Qb 1
Cdummy1 Q 0 1nF
Cdummy2 QB 0 1nF
.IC V(Qint) {VSS}
.ENDS DFFSBRB_SHPBASIC_GEN
*$
.SUBCKT DFFSR_SHPBASIC_GEN Q QB CLK D R S PARAMS: VDD=1 VSS=0 VTHRESH=0.5
X1 CLK CLKdel INV_DELAY_BASIC_GEN PARAMS: VDD={VDD} VSS={VSS} VTHRESH={VTHRESH} DELAY = 15n
X2 CLK CLKdel CLKint AND2_BASIC_GEN PARAMS: VDD={VDD} VSS={VSS} VTHRESH={VTHRESH}
GQ 0 Qint VALUE = {IF(V(S) > {VTHRESH},5,IF(V(R) > {VTHRESH},-5, IF(V(CLKint)> {VTHRESH},
+ IF(V(D)> {VTHRESH},5,-5),0)))}
CQint Qint 0 1n
RQint Qint 0 1000MEG
D_D10 Qint MY5 D_D1
V1 MY5 0 {VDD}
D_D11 MYVSS Qint D_D1
V2 MYVSS 0 {VSS}
EQ Qqq 0 Qint 0 1
X3 Qqq Qqqd1 BUF_DELAY_BASIC_GEN PARAMS: VDD=1 VSS=0 VTHRESH=0.5 DELAY = 20n
RQq Qqqd1 Q 1
EQb Qbr 0 VALUE = {IF( V(Q) > {VTHRESH}, {VSS},{VDD})}
RQb Qbr Qb 1
Cdummy1 Q 0 1nF
Cdummy2 QB 0 1nF
.IC V(Qint) {VSS}
.ENDS DFFSR_SHPBASIC_GEN
*$
.SUBCKT DFFSBRB_RHPBASIC_GEN Q QB CLK D RB SB PARAMS: VDD=1 VSS=0 VTHRESH=0.5
X1 CLK CLKdel INV_DELAY_BASIC_GEN PARAMS: VDD={VDD} VSS={VSS} VTHRESH={VTHRESH} DELAY = 15n
X2 CLK CLKdel CLKint AND2_BASIC_GEN PARAMS: VDD={VDD} VSS={VSS} VTHRESH={VTHRESH}
GQ 0 Qint VALUE = {IF(V(RB) < {VTHRESH},-5,IF(V(SB)< {VTHRESH},5, IF(V(CLKint)> {VTHRESH},
+ IF(V(D)> {VTHRESH},5,-5),0)))}
CQint Qint 0 1n
RQint Qint 0 1000MEG
D_D10 Qint MY5 D_D1
V1 MY5 0 5
D_D11 0 Qint D_D1
EQ Qqq 0 Qint 0 1
X3 Qqq Qqqd1 BUF_DELAY_BASIC_GEN PARAMS: VDD={VDD} VSS={VSS} VTHRESH={VTHRESH} DELAY = 20n
RQq Qqqd1 Q 1
EQb Qbr 0 VALUE = {IF( V(Q) > {VTHRESH}, {VSS},{VDD})}
RQb Qbr Qb 1
Cdummy1 Q 0 1nF
Cdummy2 QB 0 1nF
.IC V(Qint) {VSS}
.ENDS DFFSBRB_RHPBASIC_GEN
*$
.SUBCKT DFFSR_RHPBASIC_GEN Q QB CLK D R S PARAMS: VDD=1 VSS=0 VTHRESH=0.5
X1 CLK CLKdel INV_DELAY_BASIC_GEN PARAMS: VDD={VDD} VSS={VSS} VTHRESH={VTHRESH} DELAY = 15n
X2 CLK CLKdel CLKint AND2_BASIC_GEN PARAMS: VDD={VDD} VSS={VSS} VTHRESH={VTHRESH}
GQ 0 Qint VALUE = {IF(V(R) > {VTHRESH},-5,IF(V(S) > {VTHRESH},5, IF(V(CLKint)> {VTHRESH},
+ IF(V(D)> {VTHRESH},5,-5),0)))}
CQint Qint 0 1n
RQint Qint 0 1000MEG
D_D10 Qint MY5 D_D1
V1 MY5 0 {VDD}
D_D11 MYVSS Qint D_D1
V2 MYVSS 0 {VSS}
EQ Qqq 0 Qint 0 1
X3 Qqq Qqqd1 BUF_DELAY_BASIC_GEN PARAMS: VDD={VDD} VSS={VSS} VTHRESH={VTHRESH} DELAY = 20n
RQq Qqqd1 Q 1
EQb Qbr 0 VALUE = {IF( V(Q) > {VTHRESH}, {VSS},{VDD})}
RQb Qbr Qb 1
Cdummy1 Q 0 1nF
Cdummy2 QB 0 1nF
.IC V(Qint) {VSS}
.ENDS DFFSR_RHPBASIC_GEN
*$
.SUBCKT LDCR IN OUT
+ PARAMs:  L=1u DCR=0.01 IC=0
L	IN 1  {L} IC={IC}
RDCR	1 OUT {DCR}
.ENDS LDCR
*$
.SUBCKT CESR IN OUT
+ PARAMs:  C=100u ESR=0.01 X=1 IC=0
C	IN 1 {C*X} IC={IC}
RESR	1 OUT {ESR/X}
.ENDS CESR
*$
.subckt D_D11 1 2
D_D111    1 2 D_D111
.MODEL D_D111 D( IS=1e-15 TT=10p Rs=0.05 N=.1  )
.ENDS D_D11
*$
