*$
* TPS61161
*****************************************************************************
* (C) Copyright 2013 Texas Instruments Incorporated. All rights reserved.                                            
*****************************************************************************
** This model is designed as an aid for customers of Texas Instruments.
** TI and its licensors and suppliers make no warranties, either expressed
** or implied, with respect to this model, including the warranties of 
** merchantability or fitness for a particular purpose.  The model is
** provided solely on an "as is" basis.  The entire risk as to its quality
** and performance is with the customer
*****************************************************************************
*
* This model is subject to change without notice. Texas Instruments
* Incorporated is not responsible for updating this model.
*
*****************************************************************************
*
** Released by: WEBENCH Design Center, Texas Instruments Inc.
* Part: TPS61161
* Date: 20NOV2013
* Model Type: TRANSIENT
* Simulator: PSPICE
* Simulator Version: 16.2.0.p001
* EVM Order Number: TPS61160EVM-243
* EVM Users Guide: SLVU221D–December 2007–Revised May 2013
* Datasheet: SLVS791C –NOVEMBER 2007–REVISED APRIL 2012
*
* Model Version: Final 1.00
*
*****************************************************************************
*
* Updates:
*
* Final 1.00
* Release to Web.
*
*****************************************************************************
.SUBCKT TPS61161_TRANS COMP CTRL FB GND SW VIN  PARAMS: Easy_Scale=1 CODE=32
R_R86         GND N14767359  1MEG TC=0,0 
X_U98         N14767181 Q CLK_SW AND2_BASIC_GEN PARAMS: VDD=1 VSS=0
+  VTHRESH=500E-3
X_U94         SHUT_DOWN_EXT_ENABLE CTRL SHUT_DOWN_EXT N14767359
+  srlatchrhp_basic_gen PARAMS: VDD=1 VSS=0 VTHRESH=0.5
X_U102         N14827721 N14820117 N14820386 OR2_BASIC_GEN PARAMS: VDD=1 VSS=0
+  VTHRESH=500E-3
V_V79         N14769431 GND {CODE}
R_R90         PWM_REF N14768175  100k TC=0,0 
V_V72         GND N14766983 {Undervoltage_lockout_hysterisis}
X_U101         N14769531 SHUT_DOWN_EXT SHUT_DOWN_OVP UVLO SHUT_DOWN
+  OR4_BASIC_GEN PARAMS: VDD=1 VSS=0 VTHRESH=500E-3
E_ABM82         SHUT_DOWN_EXT_ENABLE 0 VALUE { IF(V(N14767413)>2.5,1,0)    }
V_V75         INT_CLK GND  
+PULSE 0 5 0 1n 1n 40n 1.621u
E_ABM92         N14769357 0 VALUE {
+  IF(V(EASY_SCALE_REF)<V(ES_VOLT),V(EASY_SCALE_REF),V(ES_VOLT))  
+ +0   }
R_R89         GND Q  1MEG TC=0,0 
V_V74         MODE GND {Easy_Scale}
R_R85         N14767149 GND  1Meg TC=0,0 
E_ABM83         N14768175 0 VALUE { IF(V(CTRL)>0.3,200m,0)    }
V_V71         N147752023 GND {Undervoltage_lockout_hysterisis}
X_S55    SHUT_DOWN GND N14767249 N14767149 PAGE2_S55 
E_ABM87         N14768775 0 VALUE { IF(V(OVP_CAP)>0.2 & V(OLP_SW)>0.5,1,0)  
+ +0   }
E_ABM91         N14769191 0 VALUE { IF(V(N14769161)>0.3,1,0)    }
R_R87         GND N14767825  1MEG TC=0,0 
D_D32         OLP_SW N14768657 DD 
C_C40         GND N14768267  1n  TC=0,0 
E_ABM84         N14767117 0 VALUE {  V(ISENSE)+V(N14767937)  
+ +0   }
D_D28         N14767809 SW DD 
V_V76         GND N14768323 0
D_D33         N14768775 N14769161 DD 
X_S56    CLK_SW GND SW N14767809 PAGE2_S56 
R_R92         OVP_CAP N14769097  12.968k TC=0,0 
X_S59    SHUT_DOWN GND PWM_REF GND PAGE2_S59 
V_V73         N14767551 GND 1m
V_V70         N14766937 N14766983 {Undervoltage_lockout_threshold}
X_S58    SHUT_DOWN GND DISCAP_ES_REF GND PAGE2_S58 
X_H7    N14767809 GND ISENSE GND PAGE2_H7 
X_U97         CLK_SW CLK_SWB INV_BASIC_GEN PARAMS: VDD=1 VSS=0 VTHRESH=500E-3
E_ABM90         N14769097 0 VALUE { IF(V(N14768657)>0.3,1,0)    }
X_S54    CTRL GND N14767413 GND PAGE2_S54 
R_R91         GND SHUT_DOWN_EXT  1MEG TC=0,0 
D_D29         N14768973 N14768267 DD 
E_OCP7_ABM2         N14820117 0 VALUE { IF(V(OCP7_V5MSEC)<0.632121 &
+  V(ISENSE)>({ILIM_Start}*{Trans_Resistance_ISENSE}),1  
+ ,IF(V(OCP7_V5MSEC)>0.632121 & V(ISENSE)>({ILIM}*
+ {Trans_Resistance_ISENSE}),1,V(N14768697)))  
+ +0  }
R_OCP7_R1         OCP7_N14528642 OCP7_V5MSEC  {tHalf_LIM} TC=0,0 
X_OCP7_S1    SHUT_DOWN GND OCP7_V5MSEC GND OCP_OCP7_S1 
C_OCP7_C1         GND OCP7_V5MSEC  1u  TC=0,0 
V_OCP7_V1         OCP7_N14528642 GND 1
E_ABM85         CTRL_ONB 0 VALUE { IF(V(N14768267) <0.5,1,0)    }
V_V78         N14767937 GND  
+PULSE 0 0.4 0 1579n 1n 40n 1.621u
C_C39         GND N14767413  1u  TC=0,0 
R_R93         GND N14768973  1MEG TC=0,0 
C_C41         GND PWM_REF  10n  TC=0,0 
R_R84         0 ISENSE  1MEG TC=0,0 
E_ABM89         OLP_SW 0 VALUE { IF((V(SW)>{OVP_threshold}) & ((V(FB)<(1-
+ {FB_VOLTAGE_PER})*V(REF)) | (V(FB)>((1+{FB_VOLTAGE_PER})*V(REF)) )) &
+  (V(REF)>20m) ,1,0)  
+ +0  
+ +0  }
R_R96         CTRL_ONB N14769531  10 TC=0,0 
R_R95         GND EASY_SCALE_REF  10G TC=0,0 
X_U96         N14767169 N14767249 N14768323 N14768697 COMPHYS_BASIC_GEN PARAMS:
+  VDD=1 VSS=0 VTHRESH=0.5
X_S57    SHUT_DOWN GND EASY_SCALE_REF GND PAGE2_S57 
C_C43         GND N14768657  10n  TC=0,0 
R_R94         COMP N14767249  500 TC=0,0 
G_ABM2I1         N14767149 GND VALUE {
+  limit(((V(REF)-V(FB))*-1920u),-100u,100u)    }
X_U95         INT_CLK N14820386 Q N14767825 srlatchrhp_basic_gen PARAMS: VDD=1
+  VSS=0 VTHRESH=0.5
C_C44         GND N14769161  10n  TC=0,0 
E_ABM88         SHUT_DOWN_OVP 0 VALUE { IF(V(OVP_CAP)>0.6321 &
+  V(N14769191)>0.5,1,0)  
+ +0   }
E_ABM86         N14768973 0 VALUE { IF(V(CTRL) >0.5,1,0)    }
R_R83         GND UVLO  1MEG TC=0,0 
C_C42         GND OVP_CAP  1n  TC=0,0 
X_U99         EASY_SCALE_REF GND SHUT_DOWN DISCAP_ES_REF ES_REF 
V_V77         N14767169 N14767117 500m
V_V80         N14827721 GND  
+PULSE 0 5 1.53u 1n 1n 40n 1.621u
X_U93         SHUT_DOWN N14767181 INV_BASIC_GEN PARAMS: VDD=1 VSS=0
+  VTHRESH=500E-3
D_D30         N14767249 VIN DD 
X_U92         N14766937 VIN N147752023 UVLO COMPHYS_BASIC_GEN PARAMS: VDD=1
+  VSS=0 VTHRESH=0.5
G_G19         GND N14767413 N14767551 GND 1
D_D31         GND N14767249 DD 
R_R97         GND DISCAP_ES_REF  1MEG TC=0,0 
X_U100         N14769431 ES_VOLT GND ES_REF_VOL_GEN 
C_C45         GND N14769531  1n  TC=0,0 
E_ABM93         REF 0 VALUE { IF({Easy_Scale}==0,V(PWM_REF),V(N14769357))  
+ +0   }
.IC         V(EASY_SCALE_REF )=0
.IC         V(N14767249 )=0
.IC         V(PWM_REF )=0
.IC         V(OCP7_V5MSEC )=0
.IC         V(N14767413 )=0
.IC         V(DISCAP_ES_REF )=0
.IC         V(OVP_CAP )=0
.PARAM  ilim_start=0.4 ovp_threshold=38 thalf_lim=5k ilim=0.7
+  undervoltage_lockout_hysterisis=70m fb_voltage_per=0.5
+  undervoltage_lockout_threshold=2.2 trans_resistance_isense=20m t=1000
.ENDS TPS61161_TRANS
*$
.subckt PAGE2_S55 1 2 3 4  
S_S55         3 4 1 2 _S55
RS_S55         1 2 1G
.MODEL         _S55 VSWITCH Roff=10u Ron=1e9 Voff=0.6 Von=0.8
.ends PAGE2_S55
*$
.subckt PAGE2_S56 1 2 3 4  
S_S56         3 4 1 2 _S56
RS_S56         1 2 1G
.MODEL         _S56 VSWITCH Roff=1e6 Ron=300m Voff=0.2 Von=0.8
.ends PAGE2_S56
*$
.subckt PAGE2_S59 1 2 3 4  
S_S59         3 4 1 2 _S59
RS_S59         1 2 1G
.MODEL         _S59 VSWITCH Roff=1e9 Ron=1m Voff=0.6 Von=0.9
.ends PAGE2_S59
*$
.subckt PAGE2_S58 1 2 3 4  
S_S58         3 4 1 2 _S58
RS_S58         1 2 1G
.MODEL         _S58 VSWITCH Roff=1e9 Ron=1m Voff=0.6 Von=0.9
.ends PAGE2_S58
*$
.subckt PAGE2_H7 1 2 3 4  
H_H7         3 4 VH_H7 20m
VH_H7         1 2 0V
.ends PAGE2_H7
*$
.subckt PAGE2_S54 1 2 3 4  
S_S54         3 4 1 2 _S54
RS_S54         1 2 1G
.MODEL         _S54 VSWITCH Roff=1e9 Ron=100m Voff=0.6 Von=0.9
.ends PAGE2_S54
*$
.subckt OCP_OCP7_S1 1 2 3 4  
S_OCP7_S1         3 4 1 2 _OCP7_S1
RS_OCP7_S1         1 2 1G
.MODEL         _OCP7_S1 VSWITCH Roff=1e6 Ron=2 Voff=0.3 Von=0.8
.ends OCP_OCP7_S1
*$
.subckt PAGE2_S57 1 2 3 4  
S_S57         3 4 1 2 _S57
RS_S57         1 2 1G
.MODEL         _S57 VSWITCH Roff=1e9 Ron=1m Voff=0.6 Von=0.9
.ends PAGE2_S57
*$
.model DD d
+ is=1e-015
+ n=0.01
+ tt=1e-011
*$
.subckt srlatchrhp_basic_gen s r q qb params: vdd=1 vss=0 vthresh=0.5 
gq 0 qint value = {if(v(r) > {vthresh},-5,if(v(s)>{vthresh},5, 0))}
cqint qint 0 1n
rqint qint 0 1000meg
d_d10 qint my5 d_d1
v1 my5 0 {vdd}
d_d11 myvss qint d_d1
v2 myvss 0 {vss} 
eq qqq 0 qint 0 1
x3 qqq qqqd1 buf_basic_gen params: vdd={vdd} vss={vss} vthresh={vthresh}
rqq qqqd1 q 1
eqb qbr 0 value = {if( v(q) > {vthresh}, {vss},{vdd})}
rqb qbr qb 1 
cdummy1 q 0 1n 
cdummy2 qb 0 1n
.model d_d1 d
+ is=1e-015
+ tt=1e-011
+ rs=0.05
+ n=0.01
.ends srlatchrhp_basic_gen
*$
.subckt srlatchshp_basic_gen s r q qb params: vdd=1 vss=0 vthresh=0.5 
gq 0 qint value = {if(v(s) > {vthresh},5,if(v(r)>{vthresh},-5, 0))}
cqint qint 0 1n
rqint qint 0 1000meg
d_d10 qint my5 d_d1
v1 my5 0 {vdd}
d_d11 myvss qint d_d1
v2 myvss 0 {vss} 
eq qqq 0 qint 0 1
x3 qqq qqqd1 buf_basic_gen params: vdd={vdd} vss={vss} vthresh={vthresh}
rqq qqqd1 q 1
eqb qbr 0 value = {if( v(q) > {vthresh}, {vss},{vdd})}
rqb qbr qb 1 
cdummy1 q 0 1n 
cdummy2 qb 0 1n 
.model d_d1 d
+ is=1e-015
+ tt=1e-011
+ rs=0.05
+ n=0.01
.ends srlatchshp_basic_gen
*$
.subckt WLED 1 2
d1 1 2 WLED_1 
.model WLED_1 d 
+is=26.745E-18  
+n=3.03
+rs=11.848    
+eg=2.6000 
+cjo=74.675E-12   
+m=0.26598       
+vj=1.7784      
+bv=5.5360           
+ibv=10        
+tt=5.0000E-9
.ends WLED
*$
.SUBCKT REFERENCE_VOLTEGE_GEN  VIN VOUT VSS
E_CLK_RISING_EDGE VOUT VSS VALUE = {IF(V(VIN)<0.3m, 0,IF(V(VIN)>0.5m & V(VIN)<11.5m,(V(VIN)-1m)*3+5m,
+IF(V(VIN)>11.7m & V(VIN)< 22.5m,(V(VIN)-13m)*6+44m,
+IF(V(VIN)>22.7m & V(VIN)< 31.7m,(V(VIN)-24m)*12+116m,200m))))}
.ENDS REFERENCE_VOLTEGE_GEN 
*$
.SUBCKT ES_REF_VOL_GEN  VIN VOUT VSS
E1 VOUT VSS VALUE {IF(V(VIN)<0.1m,0,IF(V(VIN)<12,
+5m+(V(VIN)-1)*3m,IF(V(VIN)<23,38m+(V(VIN)-12)
+*6m,IF(V(VIN)<32,104m+(V(VIN)-23)*12m,200m))))}
.ENDS ES_REF_VOL_GEN
*$
.SUBCKT ES_REF  VOUT VSS SHUT_DOWN TEMP2
E1 VRC VSS VALUE {IF(V(SHUT_DOWN)>0.5,0,1)}
R1 VRC TEMP2 213K
C1 TEMP2 VSS 1N IC=0
G1 VSS VOUT VALUE {IF(V(TEMP2)<0.63,0,IF(V(VOUT)<5M,5M,IF(V(VOUT)<38M,3M,
+IF(V(VOUT)<104M,6M,IF(V(VOUT)<200M,12M,0)))))} 
C2 VOUT VSS 213U IC=0
.ENDS ES_REF
*$
.SUBCKT AND2_BASIC_GEN A B Y PARAMS: VDD=1 VSS=0 VTHRESH=0.5 
E_ABMGATE    YINT 0 VALUE {{IF(V(A) > {VTHRESH}  &  
+ V(B) > {VTHRESH},{VDD},{VSS})}}
RINT YINT Y 1
CINT Y 0 1n
.ENDS AND2_BASIC_GEN
*$
.SUBCKT OR2_BASIC_GEN A B Y PARAMS: VDD=1 VSS=0 VTHRESH=0.5 
E_ABMGATE    YINT 0 VALUE {{IF(V(A) > {VTHRESH}  |  
+ V(B) > {VTHRESH},{VDD},{VSS})}}
RINT YINT Y 1
CINT Y 0 1n
.ENDS OR2_BASIC_GEN
*$
.SUBCKT COMPHYS_BASIC_GEN INP INM HYS OUT PARAMS: VDD=1 VSS=0 VTHRESH=0.5	
EIN INP1 INM1 INP INM 1 
EHYS INP1 INP2 VALUE { IF( V(1) > {VTHRESH},-V(HYS),0) }
EOUT OUT 0 VALUE { IF( V(INP2)>V(INM1), {VDD} ,{VSS}) }
R1 OUT 1 1
C1 1 0 5n
RINP1 INP1 0 1K
.ENDS COMPHYS_BASIC_GEN
*$
.SUBCKT INV_BASIC_GEN A  Y PARAMS: VDD=1 VSS=0 VTHRESH=0.5 
E_ABMGATE    YINT 0 VALUE {{IF(V(A) > {VTHRESH} , 
+ {VSS},{VDD})}}
RINT YINT Y 1
CINT Y 0 1n
.ENDS INV_BASIC_GEN
*$
.SUBCKT OR4_BASIC_GEN A B C D Y PARAMS: VDD=1 VSS=0 VTHRESH=0.5 
E_ABMGATE    YINT 0 VALUE {{IF(V(A) > {VTHRESH}  |  
+ V(B) > {VTHRESH} |
+ V(C) > {VTHRESH} |
+ V(D) > {VTHRESH},{VDD},{VSS})}}
RINT YINT Y 1
CINT Y 0 1n
.ENDS OR4_BASIC_GEN
*$
.SUBCKT BUF_BASIC_GEN A  Y PARAMS: VDD=1 VSS=0 VTHRESH=0.5 
E_ABMGATE    YINT 0 VALUE {{IF(V(A) > {VTHRESH} , 
+ {VDD},{VSS})}}
RINT YINT Y 1
CINT Y 0 1n
.ENDS BUF_BASIC_GEN
*$
.SUBCKT ET_COUNTER CLK_FALLING_EDGE CLK_RISING_EDGE GND EI_VALUE VSS CLK
R2          CLK_RISING_EDGE VSS 100G 
R1          CLK_FALLING_EDGE VSS 100G 
XU14        CLK CLK CLK_RISING_EDGE CLK_FALLING_EDGE VSS EI_VALUE COUNTER_0
.ENDS ET_COUNTER
*S
.SUBCKT COUNTER_0 CLK CLKFE CLK_RISING_EDGE CLK_FALLING_EDGE GND EI_VALUE
E_CLK_RISING_EDGE temp1 GND VALUE = {IF (V(CLK)>1.2 & V(CLK_FALLING_EDGE)<V(EI_VALUE) & 
+V(CLK_FALLING_EDGE)< V(EI_VALUE) , V(CLK_FALLING_EDGE) ,V(CLK_RISING_EDGE))}
R1 temp1 CLK_RISING_EDGE 10m
C1 CLK_RISING_EDGE GND 1n IC=0
E_CLK_FALLING_EDGE temp2 GND VALUE = {IF (V(CLKFE)<0.5 , V(CLK_RISING_EDGE)+1, V(CLK_FALLING_EDGE))}
R2 temp2 CLK_FALLING_EDGE 10m
C2 CLK_FALLING_EDGE GND 1n IC=0
.ENDS COUNTER_0
*$
.SUBCKT LDCR IN OUT
+ PARAMs:  L=1u DCR=0.01 
L	IN 1  {L} 
RDCR	1 OUT {DCR}
.ENDS LDCR
*$
.SUBCKT CESR IN OUT
+ PARAMs:  C=100u ESR=0.01 X=2 
C	IN 1  {C*X} 
RESR	1 OUT {ESR/X}
.ENDS CESR
*$