*$
*TPS63010
*****************************************************************************
* (C) Copyright 2009 Texas Instruments Incorporated. All rights reserved.                                            
*****************************************************************************
** This model is designed as an aid for customers of Texas Instruments.                                             
** TI and its licensors and suppliers make no warranties, either expressed                                           
** or implied, with respect to this model, including the warranties of                                                    
** merchantability or fitness for a particular purpose. The model is                                                      
** provided solely on an "as is" basis. The entire risk as to its quality                                                    
** and performance is with the customer                                                                                          
*****************************************************************************
*
* This model was developed for Texas Instruments Incorporated by:
*   AEi Systems, LLC
*   5777 W. Century Blvd., Suite 876
*   Los Angeles, California  90045
*
* This model is subject to change without notice. Neither Texas Instruments Incorporated 
* nor AEi Systems is responsible for updating this model.
* For more information regarding modeling services, model libraries and simulation 
* products, please call AEi Systems at (310) 216-1144, or contact AEi Systems by email: 
* info@AENG.com. Or visit AEi Systems on the web at http://www.AENG.com.
*
*****************************************************************************
*
** Released by: Analog eLab Design Center, Texas Instruments Inc.
* Part: TPS63010
* Date: 08/20/2009
* Model Type: Transient 
* Simulator: PSpice 
* Simulator Version: 16.0.0.p001
* EVM Order Number: TPS63010EVM-235 
* EVM Users Guide: SLVU255 - August 2008
* Datasheet: SLVS653A - June 2008, Revised August 2009
*
*****************************************************************************
*
* Updates:
*
* Final 1.00
* Release to Web.
*
***************************************************************************
.SUBCKT TPS63010_TRANS L1 VIN VINA EN PS VSEL SYNC 
+ GND PGND FB VOUT L2
.PARAM VHIGH=1 VLOW=1
R1K GND 0 1K
X_U2_U15          BUCKRAMP VCA U2_N171122 COMPARATOR
X_U2_U16          VCA BOOSTRAMP U2_N170866 COMPARATOR
X_U2_U31          U2_N170632 FAULT U2_N170828 OR
X_U2_U32          U2_N171122 U2_N170828 U2_N170812 OR
X_U2_U17         U2_N170812 CLK BUCKDRV
+  RSFF_RDOM_VAR1 PARAMS:  T=20
X_U2_U23         U2_N170946 CLK BOOSTDRV
+  RSFF_RDOM_VAR1 PARAMS:  T=20
X_U2_U30          U2_N170866 U2_N170828 U2_N170946 OR
X_U2_U28          PSOFF U2_N170632 INVERTER
R_U4_R1         0 U4_VVA  1e12  
X_U4_U2          VSEL U4_N123559
+  COMP_HYS2 PARAMS:  TH=0.8 HYS=0.8  T=20 
V_U4_V1         U4_N137240 0 0.5
R_U4_RZI         U4_N138646 VCA  250K  
G_U4_G8         0 U4_N137295 ISEN 0 10
G_U4_G5         0 VCA U4_VVA_SKIP U4_N137295 16u
C_U4_CCI         0 U4_N138646  20p IC=0 
G_U4_ABM3I1         0 U4_VVA VALUE { V(VOUT)*8e-6*
+ (V(VREF)-V(U4_FB2))    }
C_U4_C3         0 U4_VVA  10f  
X_U4_U9          FB U4_N130234 ANALOG_BUFFER PARAMS:  GAIN={VLOW} 
E_U4_ABM1         U4_N165056951 0 VALUE { IF(V(SKIP) < 0.5,0.74, V(U4_VVA))   
+  }
G_U4_G3         U4_N16498242 U4_VVA TABLE { V(U4_N16498242, U4_VVA) } 
+ ( (-10,-1p)(0,0)(1u,1u)(2u,100u)(3u,10m) )
V_U4_V3         U4_N16498242 0 500m
G_U4_G6         V4 VCA TABLE { V(V4, VCA) } 
+ ( (-10,-1p)(0,0)(1u,1u)(2u,100u)(3u,10m) )
X_U4_U10         U4_N130234 U4_N130142 U4_N123559 U4_FB2 ANALOG_MUX 
C_U4_CCV         U4_N134364 0  100p IC=0.51 
C_U4_C5         0 U4_VVA_SKIP  1n  
R_U4_R2         U4_N137240 U4_N137295  0.06  
G_U4_G4         U4_N16498304 ILIMIT TABLE { V(U4_N16498304, ILIMIT) } 
+ ( (-10,-1p)(0,0)(1u,1u)(2u,100u)(3u,10m) )
G_U4_G7         U4_N16499670 V2 TABLE { V(U4_N16499670, V2) } 
+ ( (-10,-1p)(0,0)(1u,1u)(2u,100u)(3u,10m) )
X_U4_U11          FB U4_N130142 ANALOG_BUFFER PARAMS:  GAIN={VHIGH} 
R_U4_R3         0 VCA  1e12  
C_U4_C4         0 VCA  10f  
R_U4_R4         VCA U4_N16499670  10K  
R_U4_R6         U4_N165056951 U4_VVA_SKIP  1  
V_U4_V2         U4_VVA_SKIP IAVG 0.5
R_U4_R5         U4_VVA U4_N16498304  10K  
R_U4_RZV         U4_N134364 U4_VVA  500k  
C_U1_C4         0 U1_N140768  1n IC=0 
C_U1_C3         0 U1_N138794  1n IC=0 
G_U1_G2         0 U1_N126109 VOUT 0 1.261m
X_U1_U7          U1_N124395 BUCKRAMP ANALOG_BUFFER PARAMS:  GAIN=1 
X_U1_S1    U1_RAMPDIS U1_N124395 OSCILLATOR_U1_S1 
X_U1_U8          U1_N126109 U1_N128582 ANALOG_BUFFER PARAMS:  GAIN=-1 
I_U1_I1         0 U1_N138794 DC 2.521m  
C_U1_C2         0 U1_N126109  1n IC=0 
X_U1_U4         U1_N139837 U1_N123767 one_shot PARAMS: PARAMS:  T=20  
X_U1_U2          SYNC U1_N140047 COMP_HYS2 PARAMS:  TH=0.8 HYS=0.8  T=20 
E_U1_E2         BOOSTRAMP U1_N128582 V3 0 1
X_U1_U9          FAULT U1_N140768 U1_N140687 OR
X_U1_U10          U1_N138794 U1_N139892 COMPARATOR2 PARAMS:  TH=1  
C_U1_C1         0 U1_N124395  1n IC=0 
X_U1_S3    U1_N140687 U1_N138794 OSCILLATOR_U1_S3 
X_U1_S2    U1_RAMPDIS U1_N126109 OSCILLATOR_U1_S2 
X_U1_U12          U1_N139892 U1_N123767 CLK OR
X_U1_U11          U1_N139892 U1_N140047 U1_N139837 OR
X_U1_U6          FAULT CLK U1_RAMPDIS OR
G_U1_G1         0 U1_N124395 VINA 0 1.261m
R_U1_R1         U1_N140768 CLK  1  
C_U5_C1         0 SKIP  1n  
R_U5_R4         U5_N192132 V4  1  
X_U5_U10          U5_N150474 U5_N150768 U5_N163481 OR
X_U5_U15          U5_N150474 U5_N211254 PSOFF OR
X_U5_U14         U5_N203323 U5_N195922 U5_N162431 RSFF_RDOM_VAR PARAMS:  T=10 
X_U5_U7          IAVG U5_N195986 COMPARATOR2 PARAMS:  TH=0.18  
C_U5_C3         0 V2  10n  
C_U5_C4         0 V4  10n  
X_U5_S1    U5_N220034 0 U5_N205823 0 HK_U5_S1 
X_U5_U18          U5_N162431 U5_N150768 INVERTER
R_U5_R1         VIN VINA  100  
X_U5_U8          PS U5_N150474 COMP_HYS2 PARAMS:  TH=0.8 HYS=0.8  T=20 
R_U5_R2         U5_N163481 SKIP  100  
C_U5_C5         0 U5_N205823  1n  
E_U5_ABM2         V3 0 VALUE { (V(VOUT)+V(VINA))/2  
+     }
X_U5_U28          U5_N205823 U5_N211254 INVERTER
G_U5_G1         VOUT 0 U5_N157694 0 0.008
C_U5_C6         0 U5_N220034  1n  
X_U5_U2          VINA U5_N148205 COMP_HYS2 PARAMS:  TH=1.9 HYS=0.4  T=20 
X_U5_U25          FB U5_N2047221 COMPARATOR2 PARAMS:  TH=0.5  
X_U5_U4          U5_N148205 U5_N148232 FAULT NAND
X_U5_U11         U5_N154264 U5_N148232 delay PARAMS: PARAMS:  T=140e3  
V_U5_V1         VREF 0 0.5
X_U5_U13          FB U5_N195980 COMPARATOR2 PARAMS:  TH=0.485  
X_U5_D1          0 VOUT DC_1mV_1A_1V_1nA
R_U5_R3         U5_N179047 V2  1  
X_U5_U12          U5_N148232 U5_N157694 INVERTER
R_U5_R7         U5_N2047221 U5_N220034  1  
E_U5_ABM3         U5_N179047 0 VALUE { V(V3)*0.8    }
X_U5_U16          U5_N195980 U5_N203323 INVERTER
X_U5_U19          U5_N195986 U5_N195922 INVERTER
E_U5_ABM4         U5_N192132 0 VALUE { V(VINA)*0.025    }
X_U5_U3          EN U5_N154264 COMP_HYS2 PARAMS:  TH=0.8 HYS=0.8  T=20 
E_U5_E1         ILIMIT 0 TABLE { V(VOUT, 0) } 
+ ( (-10,0.74,  0,0.74,   1.2,1.82, 10, 1.82) )
R_U5_R6         U5_N220034 U5_N205823  9.6k  
X_U3_U22         BUCKDRV FAULT PGND L1 U3_N149923 drivefet3 PARAMS: PARAMS: 
+  TH=0.5  RH=0.06  RL=0.06  
C_U3_C5         ISEN 0  20p IC=0 
X_U3_S1    BUCKDRV 0 U3_N151235 ISEN DRIVER_U3_S1 
X_U3_U23         BOOSTDRV FAULT PGND L2 VOUT drivefet3 PARAMS: PARAMS:  TH=0.5 
+  RH=0.06  RL=0.06  
E_U3_LIMIT1         U3_N151235 0 VALUE {LIMIT(V(U3_N148856),0,10)}
X_U3_H1    VIN U3_N149923 U3_N148856 0 DRIVER_U3_H1 
.ENDS TPS63010_TRANS
*$
.subckt OSCILLATOR_U1_S1 1 3  
S_U1_S1         3 0 1 0 _U1_S1
RS_U1_S1         1 0 1G
.MODEL         _U1_S1 VSWITCH Roff=1e9 Ron=1m Voff=0.25V Von=0.75V
.ends OSCILLATOR_U1_S1
*$
.subckt OSCILLATOR_U1_S3 1 3  
S_U1_S3         3 0 1 0 _U1_S3
RS_U1_S3         1 0 1G
.MODEL         _U1_S3 VSWITCH Roff=1e9 Ron=1m Voff=0.25V Von=0.75V
.ends OSCILLATOR_U1_S3
*$
.subckt OSCILLATOR_U1_S2 1 3  
S_U1_S2         3 0 1 0 _U1_S2
RS_U1_S2         1 0 1G
.MODEL         _U1_S2 VSWITCH Roff=1e9 Ron=1m Voff=0.25V Von=0.75V
.ends OSCILLATOR_U1_S2
*$
.subckt HK_U5_S1 1 2 3 4  
S_U5_S1         3 4 1 2 _U5_S1
RS_U5_S1         1 2 1G
.MODEL         _U5_S1 VSWITCH Roff=1 Ron=1e6 Voff=0.25V Von=0.75V
.ends HK_U5_S1
*$
.subckt DRIVER_U3_S1 1 2 3 4  
S_U3_S1         3 4 1 2 _U3_S1
RS_U3_S1         1 2 1G
.MODEL         _U3_S1 VSWITCH Roff=100k Ron=50 Voff=0.25V Von=0.75V
.ends DRIVER_U3_S1
*$
.subckt DRIVER_U3_H1 1 2 3 4  
H_U3_H1         3 4 VH_U3_H1 1
VH_U3_H1         1 2 0V
.ends DRIVER_U3_H1
*$
.SUBCKT RSFF_RDOM_VAR R S Q PARAMs:  T=10
EABM1  1 0 VALUE { If( V(S)>0.5 | V(Q)>0.5, 1,0)    }
EABM2  Q  0 VALUE { If( V(2)>0.5 & V(R)<0.5, 1,0)    }
R1   1 2 1
C1   2  0 {T*1e-9}
.ENDS RSFF_RDOM_VAR
*$
.SUBCKT RSFF_RDOM_VAR1 R S Q PARAMs:  T=10
EABM1  1 0 VALUE { If( V(S)>0.5 | V(Q)>0.5, 1,0)    }
EABM2  Q  0 VALUE { If( V(2)>0.5 & V(3)<0.5, 1,0)    }
R1   1 2 1
C1   2  0 {T*1e-9}
R2   R 3 1
C2   3  0 {T*1e-9}
.ENDS RSFF_RDOM_VAR1
*$
.SUBCKT OR A B OUT  
EOUT OUT 0 VALUE { IF( V(A)>0.5 | V(B)>0.5,1,0) }
.ends OR
*$
.SUBCKT OR3 A B C OUT  
EOUT OUT 0 VALUE { IF( V(A)>0.5 | V(B)>0.5 | V(C)>0.5,1,0) }
.ends OR3
*$
.SUBCKT AND_1 A B OUT  
EOUT OUT 0 VALUE { IF( V(A)>0.5 & V(B)<0.5,1,0) }
.ends AND_1
*$
.SUBCKT INVERTER IN OUT  
EOUT OUT 0 VALUE { IF( V(IN)<0.5,1,0) }
.ends INVERTER
*$
.SUBCKT NAND A B OUT  
EOUT OUT 0 VALUE { IF( V(A)>0.5 & V(B)>0.5,0,1) }
.ends NAND
*$
.SUBCKT COMPARATOR INP INM OUT  
EOUT OUT 0 VALUE { IF( V(INP)>V(INM),1,0) }
.ends COMPARATOR
*$
.SUBCKT COMPARATOR2 INP OUT  
+ PARAMs:  TH=1
EOUT OUT 0 VALUE { IF( V(INP)>TH,1,0) }
.ends COMPARATOR2
*$
.SUBCKT COMP_HYS2 INP OUT 
+ PARAMs:  TH=1 HYS=0.1 T=10
EIN INP1 0 INP 0 1 
EHYS INP1 INP2 VALUE { IF( V(1)>0.5,-(HYS)/2,HYS/2) }
EOUT OUT 0 VALUE { IF( V(INP2)>TH,1,0) }
R1 OUT 1 1
C1 1 0 {T*1e-9}
RINP1 INP1 0 1K
.ends COMP_HYS2
*$
.SUBCKT ANALOG_BUFFER IN OUT  
+ PARAMs:  GAIN=1
EOUT OUT 0 VALUE { GAIN * V(IN)}
.ends ANALOG_BUFFER
*$
.SUBCKT ANALOG_MUX A B SEL OUT  
EOUT OUT 0 VALUE { IF( V(SEL)>0.5,V(B),V(A)) }
.ends ANALOG_MUX
*$
.SUBCKT DRIVEFET3 IN FAULT RTN SW VIN 
+ PARAMS:  TH=2.5 RH=0.001 RL=0.001
D2         RTN SW FETBD 
D1         SW VIN FETBD 
EABM1         DRU 0 VALUE { if( (V(IN)>TH) & (V(FAULT)<TH),1,0)    }
EABM2         DRL 0 VALUE { if( (V(IN)<TH) & (V(FAULT)<TH),1,0)    }
S1    VIN SW DRU 0 SH 
S2    SW RTN DRL 0  SL 
.MODEL         SH VSWITCH Roff=1e6 Ron={RH} Voff=0.25V Von=0.75V
.MODEL         SL VSWITCH Roff=1e6 Ron={RL} Voff=0.25V Von=0.75V
.model FETBD  D(Is=100p Rs=1m Ikf=0 N=1 Xti=3 Eg=1.11 Cjo=00p
+               M=.1593 Vj=.75 Fc=.5 Isr=40n Nr=2 Tt=00n)
.ends DRIVEFET3
*$
.subckt DC_1mV_1A_1V_1nA A C
G1 A C TABLE { V(A, C) } ( (-1,-1n)(0,0)(1m,1) (2m,10) (3m,1000) )
.ends DC_1mV_1A_1V_1nA 
*$
.SUBCKT ONE_SHOT IN OUT
+ PARAMs:  T=100
S_S1         MEAS 0 RESET2 0 S1
E_ABM1         CH 0 VALUE { if( V(IN)>0.5 | V(OUT)>0.5,1,0)    }
R_R2         RESET2 RESET  0.1  
E_ABM3         OUT 0 VALUE { if( V(MEAS)<0.5 & V(CH)>0.5,1,0)    }
R_R1         MEAS CH  {T} 
C_C2         0 RESET2  1.4427n  
C_C1         0 MEAS  1.4427n  
E_ABM2         RESET 0 VALUE { if(V(CH)<0.5,1,0)    }
.MODEL         S1 VSWITCH Roff=1e9 Ron=1.0 Voff=0.25V Von=0.75V
.ENDS ONE_SHOT
*$
.SUBCKT DELAY IN OUT
+ PARAMs:  T=100
S_S1         MEAS 0 RESET2 0 S1
E_ABM1         CH 0 VALUE { if( V(IN)>0.5,1,0)    }
E_ABM3         OUT 0 VALUE { if( V(MEAS)>0.5 & V(CH)>0.5,1,0)    }
R_R1         MEAS CH  {T} 
C_C1         0 MEAS  1.4427n IC=-1
E_ABM2         RESET 0 VALUE { if(V(CH)<0.5,1,0)    }
R_R2         RESET2 RESET  0.1
C_C2         0 RESET2  1.4427n IC=0  
.MODEL         S1 VSWITCH Roff=1e9 Ron=1.0 Voff=0.25V Von=0.75V
.ENDS DELAY
*$
.SUBCKT OSC_1 FAULT RAMP CLK PARAMS:  FREQ=100E3 TCLK=1E-6
GDIS         RAMP 0 CLK 0 {IGAIN}
ECLK         CLK 0 VALUE { if(V(2)>0.5,1,0)    }
EHYSC         1 0 VALUE { if(V(CLK)>0.5,-0.5,0.5)    }
S1         RAMP 0 FAULT 0 S1M
EHYS         RAMP 2 1 0 1
ICH         0 RAMP DC {ICHARGE}  
COSC         0 RAMP  1n IC=0
.PARAM  ICHARGE={1E-9/TON} IGAIN={(1E-9/TCLK)+ICHARGE} TON=
+ {(1/FREQ)-TCLK} 
.MODEL         S1M VSWITCH Roff=1G Ron=1m Voff=0.25 Von=0.75
.ENDS OSC_1
*$