*$
*TPS61021A
*****************************************************************************
*  (C) Copyright 2016 Texas Instruments Incorporated. All rights reserved.
*****************************************************************************
** This model is designed as an aid for customers of Texas Instruments.
** TI and its licensors and suppliers make no warrenties, either expressed
** or implied, with respect to this model, including the warranties of 
** merchantability or fitness for a particular purpose.  The model is
** provided solely on an "as is" basis.  The entire risk as to its quality
** and performance is with the customer
*****************************************************************************
*
**Released by: WEBENCH(R) Design Center, Texas Instruments Inc.
* Part: TPS61021A
* Date: 29JULY2016
* Model Type: TRANSIENT
* Simulator: PSPICE
* Simulator Version: 16.2.0.p001
* EVM Order Number: TPS61021EVM-723 
* EVM Users Guide: SLVUAM5A–February 2016–Revised June 2016
* Datasheet: SLVSDM0–JUNE 2016
*
* Model Version: Final 1.10
*
*****************************************************************************
* 
* Updates:
* Final 1.10
* <Made these changes to the model>
*  1. Modification made to 'TON' block to match 'TON' and frequency for lower VIN values
*
* Final 1.00
* Release to Web.
*
*****************************************************************************
*
* Model Usage Notes:
* The following features are modelled,
* 1. The Start-up phases for VIN <1.6V & VIN >1.6V.
* 2. PFM functionality.
* 3. Current Limit. 
* 4. 100% duty cycle feature.
* 5. OVP feature.
*
* The following features are not modelled,
* 1. Input and quiescent current of the part have not been modelled.
* 2. Temperature effects have not been modelled.
*
*****************************************************************************
.SUBCKT TPS61021A_TRANS  EN FB PGND AGND VIN SW_0 SW_1 VOUT_0 VOUT_1
E_ABM9         N17409457 0 VALUE { V(VSS)    }
C_C7         0 EN_CTL1  1.855n  
E_ABM8         N16744128 0 VALUE { IF(V(FB)>0.81, 1, 0)    }
X_U82         N16750214 EN_CTL GATE_P_1 AND2_BASIC_GEN PARAMS: VDD=1 VSS=0
+  VTHRESH=500E-3
X_U8         COMP N17409457 d_d PARAMS:
E_ABM16         EN_TH 0 VALUE { IF(v(VIN) <0.9 & v(VOUT) >1.6,0.45,IF(V(VIN) >
+  1.5, 1, V(VIN) *0.7))    }
V_V12         N167261131 0 15m
X_U57         N17127112 100_DUTY_CYCLE_INV N17130470 AND2_BASIC_GEN PARAMS:
+  VDD=1 VSS=0 VTHRESH=500E-3
X_U67         N16795454 VOUT_OV_TH_INV PFM_INV N17127112 AND3_BASIC_GEN PARAMS:
+  VDD=1 VSS=0 VTHRESH=500E-3
X_U80         N17771001 VOUT_OV_CTL 8P6 N17769980 OR3_BASIC_GEN PARAMS: VDD=1
+  VSS=0 VTHRESH=500E-3
X_U63         N16744128 N16731167 PG N16731159 AND3_BASIC_GEN PARAMS: VDD=1
+  VSS=0 VTHRESH=500E-3
X_U18         N16807956 N16731275 N17056085 OR2_BASIC_GEN PARAMS: VDD=1 VSS=0
+  VTHRESH=500E-3
C_C18         0 UVLO_CTL  1n  
G_ABMII2         N17292511 VSS VALUE { IF(V(BOOST_OP_START)>0.5, 187n+
+  V(PG)*1.87u, 0)    }
E_ABM17         N17255166 0 VALUE { IF(V(VOUT) > 1.6, 0.4, if(V(VIN) > 0.9 &
+  V(VIN) <1.5 & V(VOUT) <1.6, (0.3*V(VIN)), 0.4))    }
E_ABM23         N17771001 0 VALUE { IF(V(VOUT) > 3 & V(FB) <0.2,1,0)    }
R_R21         N17078242 UVLO_CTL  1  
E_ABM13         N17479659 0 VALUE { if(V(PG) < 0.5,V(Vref)*0.98,V(Vref)*0.97)  
+   }
V_V2         N16711127 0 5
R_R6         N00190 EN_CTL1  10  
X_S2    N17769980 0 COMP N17669934 TPS61021A_S2 
X_U6         VSS N17292511 d_d PARAMS:
E_ABM18         N17438720 0 VALUE { IF(V(VOUT) > 1.6,1,0)    }
X_U83         N16750394 EN_CTL N16795454 AND2_BASIC_GEN PARAMS: VDD=1 VSS=0
+  VTHRESH=500E-3
X_U60         N17471669 BOOST_OP_START N17338154 AND2_BASIC_GEN PARAMS: VDD=1
+  VSS=0 VTHRESH=500E-3
C_C8         COMP 0  5p IC=0 TC=0,0 
X_U29         N17467918 N17338154 BOOST_OP_START DISC SRLATCHRHP_BASIC_GEN
+  PARAMS: VDD=1 VSS=0 VTHRESH=0.5
X_U30         N17467918 N17471669 INV_BASIC_GEN PARAMS: VDD=1 VSS=0
+  VTHRESH=500E-3
C_C14         0 VSS  1n IC=0 
E_U1_E1         U1_N16811878 0 VOUT 0 1
R_U1_R18         0 U1_N16847250  380k TC=0,0 
X_U1_U2         U1_N06870 U1_N16811876 U1_TON_RST_MIN COMP_BASIC_GEN PARAMS:
+  VDD=1 VSS=0 VTHRESH=0.5
D_U1_D1         0 U1_N16811876 D_D1 
E_U1_ABM1         U1_N16811946 0 VALUE { IF(V(U1_N16785667)>0.5,  
+ V(U1_SENSE), 10)   }
R_U1_R5         VIN U1_N06870  1k  
R_U1_R6         ISENSE U1_ISENSE_FILT  2k  
X_U1_U20         U1_N16811914 U1_N16860649 U1_TON_RST OR2_BASIC_GEN PARAMS:
+  VDD=1 VSS=0 VTHRESH=500E-3
D_U1_D2         U1_N16811898 U1_N16811896 D_D1 
C_U1_C4         0 U1_N16811947  1n  
R_U1_R3         U1_N16811946 U1_N16811947  1  
V_U1_V3         U1_1V 0 1
V_U1_V4         U1_N16811878 U1_N16847250 0.2
X_U1_U19         U1_N16811931 U1_TON_RST N16750394 N16750214
+  SRLATCHRHP_BASIC_GEN PARAMS: VDD=1 VSS=0 VTHRESH=0.5
G_U1_ABMI1         U1_N16811876 0 VALUE { IF(V(VIN)>1.25,1.5*I(V_U1_V4),
+  0.88*I(V_U1_V4))    }
G_U1_G1         U1_1V U1_SENSE ISENSE 0 1
R_U1_R7         GATE_P U1_N16785667  25  
C_U1_C7         0 U1_N16785667  1n  
G_U1_ABMII1         U1_N16811896 U1_N16811898 VALUE { (V(U1_N16811961) *11.11m)
+     }
C_U1_C5         0 U1_N16811930  1n  
X_U1_U23         N16750394 U1_N16884124 U1_N16811961 AND2_BASIC_GEN PARAMS:
+  VDD=1 VSS=0 VTHRESH=500E-3
V_U1_V2         U1_N16811896 0 5
V_U1_V5         U1_N16863016 0 10
X_U1_U21         U1_IN GATE_P U1_N16785365 AND2_BASIC_GEN PARAMS: VDD=1 VSS=0
+  VTHRESH=500E-3
X_U1_S2    U1_PRE_CHG_DIS 0 U1_N16811898 0 Ton_Timer_U1_S2 
R_U1_R17         0 U1_SENSE  43m  
X_U1_U4         U1_N16811898 U1_1V U1_N16811912 COMP_BASIC_GEN PARAMS: VDD=1
+  VSS=0 VTHRESH=0.5
E_U1_E4         U1_N16811878 U1_N16811885 TABLE { (V(VOUT) - 0.2)*47.37m } 
+ ( (-15,-15) (15,15) )
R_U1_R16         U1_N16901945 U1_IN  {80/0.69}  
E_U1_ABM2         U1_N16900044 0 VALUE { (V(COMP))    }
R_U1_R4         U1_N16900044 U1_N16811930  1  
C_U1_C16         0 U1_IN  1n  
C_U1_C1         U1_N16811876 U1_N16811885  1.9p  
X_U1_S1    U1_PRE_CHG_DIS 0 U1_N16811878 U1_N16811876 Ton_Timer_U1_S1 
X_U1_U22         U1_N16785365 PFM U1_N16811931 OR2_BASIC_GEN PARAMS: VDD=1
+  VSS=0 VTHRESH=500E-3
X_U1_U65         PFM U1_N16884124 INV_BASIC_GEN PARAMS: VDD=1 VSS=0
+  VTHRESH=500E-3
X_U1_U3         U1_N16811930 U1_N16811947 U1_N16901945 COMP_BASIC_GEN PARAMS:
+  VDD=1 VSS=0 VTHRESH=0.5
X_U1_U6         U1_N16811898 U1_N16863016 U1_N16860649 COMP_BASIC_GEN PARAMS:
+  VDD=1 VSS=0 VTHRESH=0.5
X_U1_U64         U1_N16811912 U1_TON_RST_MIN EN_CTL U1_N16811914 AND3_BASIC_GEN
+  PARAMS: VDD=1 VSS=0 VTHRESH=500E-3
C_U1_C2         0 U1_N16811898  1n  
X_U1_U5         U1_N16785667 GATE_P d_d PARAMS:
X_U1_U18         0 N16750214 U1_PRE_CHG_DIS OR2_BASIC_GEN PARAMS: VDD=1 VSS=0
+  VTHRESH=500E-3
C_U1_C6         0 U1_ISENSE_FILT  1n  
R_R1         N16711127 COMP  8e9 TC=0,0 
X_U59         N17438720 EN_CTL N17467918 AND2_BASIC_GEN PARAMS: VDD=1 VSS=0
+  VTHRESH=500E-3
X_U3         EN_CTL1 N00190 d_d PARAMS:
R_R19         N170250391 VOUT_OV_CTL  1  
X_U21         GATE_P 100_DUTY_CYCLE N17134487 OR2_BASIC_GEN PARAMS: VDD=1 VSS=0
+  VTHRESH=500E-3
V_V4         N16731123 0 12.9m
R_R2         COMP 0  8e9 TC=0,0 
E_ABM12         N170250391 0 VALUE { IF(V(VOUT)>V(VOUT_OV_TH), 1, 0)    }
X_U69         FB N17479659 N17479655 COMP_BASIC_GEN PARAMS: VDD=1 VSS=0
+  VTHRESH=0.5
R_R30         SW_1 SW  1m TC=0,0 
C_C17         0 VOUT_OV_CTL  1n  
R_R17         0 AGND  1m  
C_C3         0 N16731275  1n  
V_V6         N17025091 0 4.35
R_R3         COMP N16713129  350k TC=0,0 
C_C4         0 N16731167  1n  
R_R13         N17822082 N16731167  {10u/0.69n}  
R_R20         N17025091 VOUT_OV_TH  110k  
E_ABM1         VREF 0 VALUE { IF(V(EN_CTL)>0.5, 0.796, 0)    }
X_U66         GATE_P_1 VOUT_OV_TH_INV PFM_INV GATE_P AND3_BASIC_GEN PARAMS:
+  VDD=1 VSS=0 VTHRESH=500E-3
G_ABMI4         VOUT_OV_TH 0 VALUE { IF(V(VOUT_OV_CTL)>0.5, 1u, 0)    }
X_U15         N16731159 N17056085 PFM PFM_INV SRLATCHRHP_BASIC_GEN PARAMS:
+  VDD=1 VSS=0 VTHRESH=0.5
X_U74         N17689295 N17689277 6U AND2_BASIC_GEN PARAMS: VDD=1 VSS=0
+  VTHRESH=500E-3
R_R12         N16731279 N16731275  576  
C_C20         N17689277 0  1n IC=1 
G_ABM2I1         N16711127 COMP VALUE { {LIMIT((V(VREF) - V(FB))*4u, -10u,10u)}
+     }
X_U62         N17479655 EN_CTL PG AND2_BASIC_GEN PARAMS: VDD=1 VSS=0
+  VTHRESH=500E-3
X_U81         6U 100_DUTY_CYCLE PFM 8P6 OR3_BASIC_GEN PARAMS: VDD=1 VSS=0
+  VTHRESH=500E-3
R_R28         PFM N17689277  {10u/0.69n}  
R_R23         0 PGND  1m  
X_U56         EN_CTL1 UVLO_CTL EN_CTL AND2_BASIC_GEN PARAMS: VDD=1 VSS=0
+  VTHRESH=500E-3
E_ABM21         N17689295 0 VALUE { IF(V(PFM) <0.5,1,0)    }
X_U23         N16731167 N16807956 INV_BASIC_GEN PARAMS: VDD=1 VSS=0
+  VTHRESH=500E-3
V_V7         N17082533 0 0.8
V_U2_V20         U2_N17113848 0 1.6
V_U2_V13         U2_N16742070 U2_MAX 0.6
X_U2_U5         U2_BOOST U2_N17038179 INV_BASIC_GEN PARAMS: VDD=1 VSS=0
+  VTHRESH=500E-3
V_U2_V15         U2_N17105620 0 1.6
X_U2_H3    U2_N16902982 0 U2_ISENSE_P 0 Driver_U2_H3 
X_U2_U20         U2_OGI U2_N17105652 INV_BASIC_GEN PARAMS: VDD=1 VSS=0
+  VTHRESH=500E-3
D_U2_D1         U2_N16806914 U2_N16806894 D_D1 
X_U2_U15         U2_N16834706 U2_N16834729 U2_GATE_P_INT AND2_BASIC_GEN PARAMS:
+  VDD=1 VSS=0 VTHRESH=500E-3
D_U2_D4         U2_N16742076 U2_N16742070 D_D1 
X_U2_U53         U2_STEP5 U2_STEP4 100_DUTY_CYCLE U2_N16934829 OR3_BASIC_GEN
+  PARAMS: VDD=1 VSS=0 VTHRESH=500E-3
X_U2_U44         U2_VING1P6 U2_N17153278 U2_STEP3 AND2_BASIC_GEN PARAMS: VDD=1
+  VSS=0 VTHRESH=500E-3
X_U2_U35         U2_N17105636 EN_CTL U2_STEP2 AND2_BASIC_GEN PARAMS: VDD=1
+  VSS=0 VTHRESH=500E-3
X_U2_H4    SW U2_N16806894 U2_ISENSE_L 0 Driver_U2_H4 
X_U2_U17         N17134487 U2_GATE_N_N U2_N16834706 AND2_BASIC_GEN PARAMS:
+  VDD=1 VSS=0 VTHRESH=500E-3
X_U2_U18         U2_N16808731 U2_N17055408 U2_OSC_2M U2_OSC_2M_B
+  SRLATCHRHP_BASIC_GEN PARAMS: VDD=1 VSS=0 VTHRESH=0.5
R_U2_R5         U2_N16932783 U2_N16928854  1  
E_U2_ABM20         U2_N17056505 0 VALUE { If(V(EN_CTL) > 0.5, If(V(U2_ISENSE_P)
+  > 0.2,1,0),1)    }
X_U2_U32         U2_STEP5 U2_STEP4 U2_N16838318 OR2_BASIC_GEN PARAMS: VDD=1
+  VSS=0 VTHRESH=500E-3
X_U2_U41         U2_VOUT1P6_HI U2_N17151888 U2_N17153278 AND2_BASIC_GEN PARAMS:
+  VDD=1 VSS=0 VTHRESH=500E-3
X_U2_H2    U2_N16806914 0 U2_ISENSE_P1 0 Driver_U2_H2 
E_U2_ABM23         U2_N16846219 0 VALUE { If(V(EN_CTL) > 0.5, V(U2_OSC_2M_B),0)
+     }
E_U2_ABM18         U2_N16825458 0 VALUE {  if(v(U2_STEP1) > 0.5 | V(U2_STEP2)
+  >0.5 |v(U2_STEP3) >0.5, V(VIN), 100)    }
E_U2_ABM5         U2_N16932783 0 VALUE { IF(V(U2_N16934829)< 0.5,  
+ 5,V(U2_GATE_P_N_INT) )   }
M_U2_M1         VOUT U2_N16825458 U2_N16824441 U2_N16824441 PMOS_SIMPLE  
+ L=165u  
+ W=110900000u         
V_U2_V16         U2_N171057760 0 0.1
X_U2_U51         U2_VIN_HI U2_VING1P6 U2_STEP4 AND2_BASIC_GEN PARAMS: VDD=1
+  VSS=0 VTHRESH=500E-3
X_U2_U30         U2_OSC_2M U2_STEP2 U2_N16866899 AND2_BASIC_GEN PARAMS: VDD=1
+  VSS=0 VTHRESH=500E-3
E_U2_ABM28         U2_N17121263 0 VALUE { if(V(U2_VIN_HI) <0.5,V(VIN) -30m,
+  V(VIN)-60m)    }
X_U2_S2    U2_N16928854 0 U2_N16742076 U2_N16858583 Driver_U2_S2 
X_U2_U45         VOUT U2_N17105620 U2_N171057760 U2_VOUT1P6_HI
+  COMPHYS_BASIC_GEN PARAMS: VDD=1 VSS=0 VTHRESH=0.5
X_U2_U52         U2_STEP3 U2_STEP4 U2_STEP5 U2_BOOST OR3_BASIC_GEN PARAMS:
+  VDD=1 VSS=0 VTHRESH=500E-3
X_U2_U42         U2_N17105525 EN_CTL U2_STEP5 AND2_BASIC_GEN PARAMS: VDD=1
+  VSS=0 VTHRESH=500E-3
D_U2_D6         U2_N16838341 VOUT D_D1 
X_U2_U46         VOUT U2_N17105662 U2_N171058053 U2_OGI COMPHYS_BASIC_GEN
+  PARAMS: VDD=1 VSS=0 VTHRESH=0.5
X_U2_U8         N17134487 U2_GATE_P_N INV_BASIC_GEN PARAMS: VDD=1 VSS=0
+  VTHRESH=500E-3
X_U2_S5    U2_N16838318 0 U2_N16742076 U2_N16838338 Driver_U2_S5 
X_U2_U24         U2_GATE_N_INT U2_BOOST U2_N16903879 AND2_BASIC_GEN PARAMS:
+  VDD=1 VSS=0 VTHRESH=500E-3
X_U2_U12         U2_N16831205 U2_N16833443 U2_GATE_N_INT AND2_BASIC_GEN PARAMS:
+  VDD=1 VSS=0 VTHRESH=500E-3
X_U2_U25         U2_VIN_HI U2_N17151888 INV_BASIC_GEN PARAMS: VDD=1 VSS=0
+  VTHRESH=500E-3
V_U2_V17         U2_N171058053 0 50m
V_U2_V18         U2_N17105662 0 1.1
D_U2_D7         U2_N16742076 U2_N16824441 D_D1 
X_U2_U37         U2_VOUT1P6_HI U2_N17147294 U2_N17105525 AND2_BASIC_GEN PARAMS:
+  VDD=1 VSS=0 VTHRESH=500E-3
V_U2_VDUM1         U2_N16838341 U2_N16838338 -500m
X_U2_U3         U2_GATE_P_INT U2_GATE_P_N_INT INV_BASIC_GEN PARAMS: VDD=1 VSS=0
+  VTHRESH=500E-3
X_U2_U16         N17130470 U2_GATE_N_N INV_BASIC_GEN PARAMS: VDD=1 VSS=0
+  VTHRESH=500E-3
X_U2_U27         U2_OSC_2M U2_N17038179 U2_N16902995 AND2_BASIC_GEN PARAMS:
+  VDD=1 VSS=0 VTHRESH=500E-3
X_U2_U49         VOUT U2_N17121263 U2_VIN_HI COMP_BASIC_GEN PARAMS: VDD=1 VSS=0
+  VTHRESH=0.5
X_U2_U19         U2_VOUT1P6_HI U2_N17105669 INV_BASIC_GEN PARAMS: VDD=1 VSS=0
+  VTHRESH=500E-3
X_U2_S1    U2_N16806930 U2_N16806914 U2_N16806894 U2_N16806914 Driver_U2_S1 
X_U2_H1    U2_N16806894 U2_N16742076 ISENSE 0 Driver_U2_H1 
X_U2_U28         U2_N17105669 U2_OGI U2_N17105636 AND2_BASIC_GEN PARAMS: VDD=1
+  VSS=0 VTHRESH=500E-3
D_U2_D2         U2_N16902982 SW D_D1 
X_U2_U13         U2_N16834706 U2_N16834729 BUF_DELAY_BASIC_GEN PARAMS: VDD=1
+  VSS=0 VTHRESH=0.5 DELAY=1n
X_U2_U21         U2_VING1P6 U2_N17147294 INV_BASIC_GEN PARAMS: VDD=1 VSS=0
+  VTHRESH=500E-3
X_U2_U33         EN_CTL U2_N17105652 U2_STEP1 AND2_BASIC_GEN PARAMS: VDD=1
+  VSS=0 VTHRESH=500E-3
X_U2_U14         N17130470 U2_GATE_P_N U2_N16831205 AND2_BASIC_GEN PARAMS:
+  VDD=1 VSS=0 VTHRESH=500E-3
R_U2_R6         U2_N17056505 U2_N17055408  {30/0.69}  
X_U2_U10         U2_N16831205 U2_N16833443 BUF_DELAY_BASIC_GEN PARAMS: VDD=1
+  VSS=0 VTHRESH=0.5 DELAY=0.1n
X_U2_S3    U2_N16902995 U2_N16902982 SW U2_N16902982 Driver_U2_S3 
C_U2_C9         U2_N17055408 0  1n  
X_U2_U29         U2_N16903879 U2_N16866899 U2_N16806930 OR2_BASIC_GEN PARAMS:
+  VDD=1 VSS=0 VTHRESH=500E-3
V_U2_I_HSD         VOUT U2_N16858583 0
E_U2_ABM19         U2_N16808731 0 VALUE { If(V(EN_CTL) > 0.5, If(V(U2_ISENSE_L)
+  < 0.001,1,0),0)    }
X_U2_S4    U2_N16846219 0 VOUT VOUT Driver_U2_S4 
C_U2_C8         0 U2_N16928854  1n  
X_U2_U48         VIN U2_N17113848 U2_N171138613 U2_VING1P6 COMPHYS_BASIC_GEN
+  PARAMS: VDD=1 VSS=0 VTHRESH=0.5
V_U2_V19         U2_N171138613 0 0.1
E_U2_ABM10         U2_MAX 0 VALUE { max(V(VIN), V(VOUT))    }
D_U2_D8         U2_N17055408 U2_N17056505 D_D1 
X_U13         N16731123 COMP N17822082 COMP_BASIC_GEN PARAMS: VDD=1 VSS=0
+  VTHRESH=0.5
X_U70         BOOST_OP_START N17157115 N17524033 AND2_BASIC_GEN PARAMS: VDD=1
+  VSS=0 VTHRESH=500E-3
X_U28         PG N17157115 INV_BASIC_GEN PARAMS: VDD=1 VSS=0 VTHRESH=500E-3
X_U11         PFM N17689277 d_d PARAMS:
R_R31         VOUT_0 VOUT  1m TC=0,0 
E_ABM15         N17873644 0 VALUE { IF((V(VIN)-V(VOUT))>=0, IF(V(FB)>0.8*1.01,
+  1, 0), 0)    }
X_U36         N17873644 N17524033 100_DUTY_CYCLE 100_DUTY_CYCLE_INV
+  SRLATCHRHP_BASIC_GEN PARAMS: VDD=1 VSS=0 VTHRESH=0.5
R_R22         N17082533 UVLO_TH  100k  
R_R32         VOUT_1 VOUT  1m TC=0,0 
G_ABMI5         UVLO_TH 0 VALUE { IF(V(UVLO_CTL)>0.5, 4u, 0)    }
X_S1    DISC 0 VSS 0 TPS61021A_S1 
X_U68         EN EN_TH N17255166 N00190 COMPHYS2_BASIC_GEN PARAMS: VDD=1 VSS=0
+  VTHRESH=0.5 T=10
V_V10         N17292511 0 142.5m
X_U27         VOUT_OV_CTL VOUT_OV_TH_INV INV_BASIC_GEN PARAMS: VDD=1 VSS=0
+  VTHRESH=500E-3
C_C9         N16713129 0  48p  TC=0,0 
R_R29         SW_0 SW  1m TC=0,0 
E_ABM7         N16731279 0 VALUE { IF(V(FB)<0.792, 1, 0)    }
E_ABM19         N17669934 0 VALUE { 8.6m    }
X_U32         VIN UVLO_TH N17078242 COMP_BASIC_GEN PARAMS: VDD=1 VSS=0
+  VTHRESH=0.5
X_U9         N16731275 N16731279 d_d PARAMS:
X_U7         N167261131 COMP d_d PARAMS:
.ENDS TPS61021A_TRANS
*$
.subckt TPS61021A_S2 1 2 3 4  
S_S2         3 4 1 2 _S2
RS_S2         1 2 1G
.MODEL         _S2 VSWITCH Roff=10e6 Ron=1m Voff=0.1 Von=0.9
.ends TPS61021A_S2
*$
.subckt Ton_Timer_U1_S2 1 2 3 4  
S_U1_S2         3 4 1 2 _U1_S2
RS_U1_S2         1 2 1G
.MODEL         _U1_S2 VSWITCH Roff=10e6 Ron=1.0 Voff=0.2 Von=0.8
.ends Ton_Timer_U1_S2
*$
.subckt Ton_Timer_U1_S1 1 2 3 4  
S_U1_S1         3 4 1 2 _U1_S1
RS_U1_S1         1 2 1G
.MODEL         _U1_S1 VSWITCH Roff=100e6 Ron=1.0 Voff=0.2 Von=0.8
.ends Ton_Timer_U1_S1
*$
.subckt Driver_U2_H3 1 2 3 4  
H_U2_H3         3 4 VH_U2_H3 1
VH_U2_H3         1 2 0V
.ends Driver_U2_H3
*$
.subckt Driver_U2_H4 1 2 3 4  
H_U2_H4         3 4 VH_U2_H4 1
VH_U2_H4         1 2 0V
.ends Driver_U2_H4
*$
.subckt Driver_U2_H2 1 2 3 4  
H_U2_H2         3 4 VH_U2_H2 1
VH_U2_H2         1 2 0V
.ends Driver_U2_H2
*$
.subckt Driver_U2_S2 1 2 3 4  
S_U2_S2         3 4 1 2 _U2_S2
RS_U2_S2         1 2 1G
.MODEL         _U2_S2 VSWITCH Roff=1e6 Ron=60m Voff=0.8 Von=0.2
.ends Driver_U2_S2
*$
.subckt Driver_U2_S5 1 2 3 4  
S_U2_S5         3 4 1 2 _U2_S5
RS_U2_S5         1 2 1G
.MODEL         _U2_S5 VSWITCH Roff=1e6 Ron=1m Voff=0.49 Von=0.51
.ends Driver_U2_S5
*$
.subckt Driver_U2_S1 1 2 3 4  
S_U2_S1         3 4 1 2 _U2_S1
RS_U2_S1         1 2 1G
.MODEL         _U2_S1 VSWITCH Roff=1e6 Ron=60m Voff=0.2 Von=0.8
.ends Driver_U2_S1
*$
.subckt Driver_U2_H1 1 2 3 4  
H_U2_H1         3 4 VH_U2_H1 1
VH_U2_H1         1 2 0V
.ends Driver_U2_H1
*$
.subckt Driver_U2_S3 1 2 3 4  
S_U2_S3         3 4 1 2 _U2_S3
RS_U2_S3         1 2 1G
.MODEL         _U2_S3 VSWITCH Roff=1e6 Ron=60m Voff=0.2 Von=0.8
.ends Driver_U2_S3
*$
.subckt Driver_U2_S4 1 2 3 4  
S_U2_S4         3 4 1 2 _U2_S4
RS_U2_S4         1 2 1G
.MODEL         _U2_S4 VSWITCH Roff=1e6 Ron=60m Voff=0.2 Von=0.8
.ends Driver_U2_S4
*$
.subckt TPS61021A_S1 1 2 3 4  
S_S1         3 4 1 2 _S1
RS_S1         1 2 1G
.MODEL         _S1 VSWITCH Roff=1e12 Ron=1.0 Voff=0.0V Von=1.0V
.ends TPS61021A_S1
*$
**********************************************************************************
.subckt d_d 1 2
d1 1 2 dd
.model dd d
+ is=1e-015
+ n=0.01
+ tt=1e-011
.ends d_d
*$
.SUBCKT COMPHYS_BASIC_GEN INP INM HYS OUT PARAMS: VDD=1 VSS=0 VTHRESH=0.5	
EIN INP1 INM1 INP INM 1 
EHYS INP1 INP2 VALUE { IF( V(1) > {VTHRESH},-V(HYS),0) }
EOUT OUT 0 VALUE { IF( V(INP2)>V(INM1), {VDD} ,{VSS}) }
R1 OUT 1 1
C1 1 0 5n
RINP1 INP1 0 1K
.ENDS COMPHYS_BASIC_GEN
*$
.SUBCKT AND2_BASIC_GEN A B Y PARAMS: VDD=1 VSS=0 VTHRESH=0.5 
E_ABMGATE    YINT 0 VALUE {{IF(V(A) > {VTHRESH}  &  
+ V(B) > {VTHRESH},{VDD},{VSS})}}
RINT YINT Y 1
CINT Y 0 1n
.ENDS AND2_BASIC_GEN
*$
.SUBCKT INV_BASIC_GEN A  Y PARAMS: VDD=1 VSS=0 VTHRESH=0.5 
E_ABMGATE    YINT 0 VALUE {{IF(V(A) > {VTHRESH} , 
+ {VSS},{VDD})}}
RINT YINT Y 1
CINT Y 0 1n
.ENDS INV_BASIC_GEN
*$
.SUBCKT SRLATCHRHP_BASIC_GEN S R Q QB PARAMS: VDD=1 VSS=0 VTHRESH=0.5 
GQ 0 Qint VALUE = {IF(V(R) > {VTHRESH},-5,IF(V(S)>{VTHRESH},5, 0))}
CQint Qint 0 1n
RQint Qint 0 1000MEG
D_D10 Qint MY5 D_D1
V1 MY5 0 {VDD}
D_D11 MYVSS Qint D_D1
V2 MYVSS 0 {VSS} 
EQ Qqq 0 Qint 0 1
X3 Qqq Qqqd1 BUF_BASIC_GEN PARAMS: VDD={VDD} VSS={VSS} VTHRESH={VTHRESH}
RQq Qqqd1 Q 1
EQb Qbr 0 VALUE = {IF( V(Q) > {VTHRESH}, {VSS},{VDD})}
RQb Qbr QB 1 
Cdummy1 Q 0 1n 
Cdummy2 QB 0 1n
.IC V(Qint) {VSS}
.ENDS SRLATCHRHP_BASIC_GEN
*$
.SUBCKT OR2_BASIC_GEN A B Y PARAMS: VDD=1 VSS=0 VTHRESH=0.5 
E_ABMGATE    YINT 0 VALUE {{IF(V(A) > {VTHRESH}  |  
+ V(B) > {VTHRESH},{VDD},{VSS})}}
RINT YINT Y 1
CINT Y 0 1n
.ENDS OR2_BASIC_GEN
*$
.SUBCKT BUF_BASIC_GEN A  Y PARAMS: VDD=1 VSS=0 VTHRESH=0.5 
E_ABMGATE    YINT 0 VALUE {{IF(V(A) > {VTHRESH} , 
+ {VDD},{VSS})}}
RINT YINT Y 1
CINT Y 0 1n
.ENDS BUF_BASIC_GEN
*$
.SUBCKT BUF_DELAY_BASIC_GEN A  Y PARAMS: VDD=1 VSS=0 VTHRESH=0.5 DELAY = 10n 
E_ABMGATE1    YINT1 0 VALUE {{IF(V(A) > {VTHRESH} , 
+ {VDD},{VSS})}}
RINT YINT1 YINT2 1
CINT YINT2 0 {DELAY*1.3}
E_ABMGATE2    YINT3 0 VALUE {{IF(V(YINT2) > {VTHRESH} , 
+ {VDD},{VSS})}}
RINT2 YINT3 Y 1
CINT2 Y 0 1n
.ENDS BUF_DELAY_BASIC_GEN
*$
.MODEL D_D1 D( IS=1e-15 TT=10p Rs=0.05 N=.1  )
*$
.MODEL PMOS_SIMPLE PMOS 
*$
.SUBCKT COMP_BASIC_GEN INP INM Y PARAMS: VDD=1 VSS=0 VTHRESH=0.5	
E_ABM Yint 0 VALUE {IF (V(INP) > 
+ V(INM), {VDD},{VSS})}
R1 Yint Y 1
C1 Y 0 1n
.ENDS COMP_BASIC_GEN
*$
.SUBCKT COMPHYS2_BASIC_GEN INP INM HYS OUT PARAMS: VDD=1 VSS=0 VTHRESH=0.5	
+ T=10
EIN INP1 INM1 INP INM 1 
EHYS INM2 INM1 VALUE { IF( V(1) > {VTHRESH},-V(HYS)/2,V(HYS)/2) }
EOUT OUT 0 VALUE { IF( V(INP1)>V(INM2), {VDD} ,{VSS}) }
R1 OUT 1 1
C1 1 0 {T*1e-9}
RINP1 INP1 0 10K
RINM2 INM2 0 10K
.ENDS COMPHYS2_BASIC_GEN
*$
*$
.SUBCKT AND3_BASIC_GEN A B C Y PARAMS: VDD=1 VSS=0 VTHRESH=0.5 
E_ABMGATE    YINT 0 VALUE {{IF(V(A) > {VTHRESH}  &  
+ V(B) > {VTHRESH} &
+ V(C) > {VTHRESH},{VDD},{VSS})}}
RINT YINT Y 1
CINT Y 0 1n
.ENDS AND3_BASIC_GEN
*$
.SUBCKT OR3_BASIC_GEN A B C Y PARAMS: VDD=1 VSS=0 VTHRESH=0.5 
E_ABMGATE    YINT 0 VALUE {{IF(V(A) > {VTHRESH}  |  
+ V(B) > {VTHRESH} |
+ V(C) > {VTHRESH},{VDD},{VSS})}}
RINT YINT Y 1
CINT Y 0 1n
.ENDS OR3_BASIC_GEN
*$
*$
