* PSpice Model Editor - Version 16.0.0
*$
* TPS65193
*****************************************************************************
* (C) Copyright 2009 Texas Instruments Incorporated. All rights reserved.  
*****************************************************************************
** This model is designed as an aid for customers of Texas Instruments.     
** TI and its licensors and suppliers make no warranties, either expressed  
** or implied, with respect to this model, including the warranties of      
** merchantability or fitness for a particular purpose. The model is        
** provided solely on an "as is" basis. The entire risk as to its quality   
** and performance is with the customer                                   
*****************************************************************************
*
** Released by: Analog e-Lab Design Center, Texas Instruments Inc.
* Part: TPS65193 
* Date: 09/03/2009
* Model Type: Transient
* Simulator: PSPICE
* Simulator Version: 16.0.0.p001
* Datasheet: SLVS964 – JULY 2009
*
*****************************************************************************
*
* Updates:
*
* Final 1.00
* Release to Web.
*
*****************************************************************************
.SUBCKT TPS65193 CKVB1 CKVB2 CKV1 CKV2 EN CKVBCS1 CKVBCS2 
+ CKVCS1 CKVCS2 STV AGND DISH STVP CPV1 CPV2 VON DLY VOFF
R_R3         N130828 0  90k  
X_U6         STV N117636 STV_INT COMP_BASIC_GEN PARAMS: VDD=1 VSS=0 VTHRESH=0.5
R_R4         DISH N130828  10k  
D_D4         N11665 CKV1 D_D2 
X_U5         EN N117413 EN_INT COMP_BASIC_GEN PARAMS: VDD=1 VSS=0 VTHRESH=0.5
V_V3         N117865 0 2
R_R1         AGND 0  1m  
V_V2         N117636 0 2
X_CONTROL_U4         EN_INT CONTROL_N00780 INV_BASIC_GEN PARAMS: VDD=1 VSS=0
+  VTHRESH=500E-3
V_CONTROL_V3         CONTROL_N00231 0 8
X_CONTROL_U6         CONTROL_N393025 CONTROL_N393080 FOLLOW_VOFF OR2_BASIC_GEN
+  PARAMS: VDD=1 VSS=0 VTHRESH=500E-3
X_CONTROL_U1         UVLO_OUT EN_INT CONTROL_START AND2_BASIC_GEN PARAMS: VDD=1
+  VSS=0 VTHRESH=500E-3
V_CONTROL_V1         CONTROL_N01087 0 11.75
X_CONTROL_U5         VON CONTROL_N01087 CONTROL_N01083 UVLO_OUT
+  COMPHYS_BASIC_GEN PARAMS: VDD=1 VSS=0 VTHRESH=0.5
X_CONTROL_U7         DLY_INT CONTROL_N392353 INV_BASIC_GEN PARAMS: VDD=1 VSS=0
+  VTHRESH=500E-3
V_CONTROL_V2         CONTROL_N01083 0 0.25
X_CONTROL_U2         DLY CONTROL_N00476 DLY_INT COMP_BASIC_GEN PARAMS: VDD=1
+  VSS=0 VTHRESH=0.5
D_CONTROL_D22         DLY CONTROL_N00231 D_D1 
X_CONTROL_U3         UVLO_OUT CONTROL_N00780 CONTROL_N393025 AND2_BASIC_GEN
+  PARAMS: VDD=1 VSS=0 VTHRESH=500E-3
G_CONTROL_ABMII1         CONTROL_N00231 DLY VALUE { IF(V(CONTROL_START) > 0.5,
+  14.5u, 0)    }
V_CONTROL_V4         CONTROL_N00476 0 2.9
X_CONTROL_U8         CONTROL_START CONTROL_N392353 CONTROL_N393080
+  AND2_BASIC_GEN PARAMS: VDD=1 VSS=0 VTHRESH=500E-3
X_DRIVER_C2_U34         FOLLOW_VOFF DRIVER_C2_N80235 INV_BASIC_GEN PARAMS:
+  VDD=1 VSS=0 VTHRESH=500E-3
X_DRIVER_C2_U3         STV_INT DRIVER_C2_N37834 DLY_INT
+  DRIVER_C2_COND_STV_HIGH_B AND3_BASIC_GEN PARAMS: VDD=1 VSS=0 VTHRESH=500E-3
X_DRIVER_C2_U13         CPV2_INT DRIVER_C2_N05917 INV_BASIC_GEN PARAMS: VDD=1
+  VSS=0 VTHRESH=500E-3
X_DRIVER_C2_U1         STV_INT CPV2_INT DLY_INT DRIVER_C2_COND_STV_HIGH
+  AND3_BASIC_GEN PARAMS: VDD=1 VSS=0 VTHRESH=500E-3
X_DRIVER_C2_U5         DRIVER_C2_N78249 DRIVER_C2_N09084 DRIVER_C2_N08884
+  DRIVER_C2_N09088 AND3_BASIC_GEN PARAMS: VDD=1 VSS=0 VTHRESH=500E-3
X_DRIVER_C2_S3    DRIVER_C2_N15923 0 VON CKVB2 DRIVER_C_DRIVER_C2_S3 
X_DRIVER_C2_U16         DRIVER_C2_N07578 DRIVER_C2_N07648 DRIVER_C2_N07879
+  OR2_BASIC_GEN PARAMS: VDD=1 VSS=0 VTHRESH=500E-3
X_DRIVER_C2_U36         DLY_INT STV_INT DRIVER_C2_N59931 DRIVER_C2_RB
+  NAND3_BASIC_GEN PARAMS: VDD=1 VSS=0 VTHRESH=500E-3
X_DRIVER_C2_U33         FOLLOW_VOFF DRIVER_C2_N71803 INV_BASIC_GEN PARAMS:
+  VDD=1 VSS=0 VTHRESH=500E-3
X_DRIVER_C2_U8         DRIVER_C2_COND_STV_HIGH_B DRIVER_C2_N15575
+  DRIVER_C2_N15753 OR2_BASIC_GEN PARAMS: VDD=1 VSS=0 VTHRESH=500E-3
X_DRIVER_C2_S4    DRIVER_C2_N16011 0 CKVB2 VOFF DRIVER_C_DRIVER_C2_S4 
X_DRIVER_C2_U28         DRIVER_C2_Q DRIVER_C2_QB DRIVER_C2_N24052 DRIVER_C2_QB
+  DRIVER_C2_RB DRIVER_C2_SB DFFSBRB_RHPBASIC_GEN PARAMS: VDD=1 VSS=0
+  VTHRESH=500E-3
X_DRIVER_C2_U2         STV_INT DRIVER_C2_N08792 INV_BASIC_GEN PARAMS: VDD=1
+  VSS=0 VTHRESH=500E-3
X_DRIVER_C2_U10         DRIVER_C2_COND_STV_HIGH_B DRIVER_C2_N08996 FOLLOW_VOFF
+  DRIVER_C2_N09080 OR3_BASIC_GEN PARAMS: VDD=1 VSS=0 VTHRESH=500E-3
X_DRIVER_C2_U35         DLY_INT STV_INT CPV2_INT DRIVER_C2_SB NAND3_BASIC_GEN
+  PARAMS: VDD=1 VSS=0 VTHRESH=500E-3
X_DRIVER_C2_U22         DRIVER_C2_HIGH_IMP_X DRIVER_C2_N15791 INV_BASIC_GEN
+  PARAMS: VDD=1 VSS=0 VTHRESH=500E-3
X_DRIVER_C2_U15         UVLO_OUT DRIVER_C2_N07578 INV_BASIC_GEN PARAMS: VDD=1
+  VSS=0 VTHRESH=500E-3
X_DRIVER_C2_U18         DRIVER_C2_N80235 DRIVER_C2_N15753 DRIVER_C2_N15791
+  DRIVER_C2_N15923 AND3_BASIC_GEN PARAMS: VDD=1 VSS=0 VTHRESH=500E-3
X_DRIVER_C2_U7         CPV2_INT DLY_INT DRIVER_C2_N24052 AND2_BASIC_GEN PARAMS:
+  VDD=1 VSS=0 VTHRESH=500E-3
X_DRIVER_C2_U20         DRIVER_C2_COND_STV_LOW DRIVER_C2_QB DRIVER_C2_N08996
+  AND2_BASIC_GEN PARAMS: VDD=1 VSS=0 VTHRESH=500E-3
X_DRIVER_C2_U23         DLY_INT DRIVER_C2_N28526 N113253 AND2_BASIC_GEN PARAMS:
+  VDD=1 VSS=0 VTHRESH=500E-3
X_DRIVER_C2_U26         CPV2_INT DRIVER_C2_N37834 INV_BASIC_GEN PARAMS: VDD=1
+  VSS=0 VTHRESH=500E-3
X_DRIVER_C2_U4         DRIVER_C2_COND_STV_HIGH DRIVER_C2_N12922
+  DRIVER_C2_N09084 OR2_BASIC_GEN PARAMS: VDD=1 VSS=0 VTHRESH=500E-3
X_DRIVER_C2_U11         DRIVER_C2_N08884 DRIVER_C2_N09080 DRIVER_C2_N09176
+  AND2_BASIC_GEN PARAMS: VDD=1 VSS=0 VTHRESH=500E-3
X_DRIVER_C2_U32         CPV2_INT DRIVER_C2_N59931 INV_BASIC_GEN PARAMS: VDD=1
+  VSS=0 VTHRESH=500E-3
X_DRIVER_C2_U19         DRIVER_C2_COND_STV_LOW DRIVER_C2_Q DRIVER_C2_N12922
+  AND2_BASIC_GEN PARAMS: VDD=1 VSS=0 VTHRESH=500E-3
X_DRIVER_C2_U37         DRIVER_C2_N91221 DRIVER_C2_N28526 BUF_DELAY_BASIC_GEN
+  PARAMS: VDD=1 VSS=0 VTHRESH=0.5 DELAY=60n
X_DRIVER_C2_U12         STV_INT DRIVER_C2_N05853 INV_BASIC_GEN PARAMS: VDD=1
+  VSS=0 VTHRESH=500E-3
X_DRIVER_C2_U14         DRIVER_C2_N05853 DLY_INT DRIVER_C2_N05917
+  DRIVER_C2_N07648 AND3_BASIC_GEN PARAMS: VDD=1 VSS=0 VTHRESH=500E-3
X_DRIVER_C2_U9         DRIVER_C2_N71007 DRIVER_C2_N71803 DRIVER_C2_HIGH_IMP_X
+  AND2_BASIC_GEN PARAMS: VDD=1 VSS=0 VTHRESH=500E-3
X_DRIVER_C2_U21         DRIVER_C2_COND_STV_LOW DRIVER_C2_Q DRIVER_C2_N15829
+  AND2_BASIC_GEN PARAMS: VDD=1 VSS=0 VTHRESH=500E-3
X_DRIVER_C2_U24         DRIVER_C2_COND_STV_HIGH DRIVER_C2_N15829 FOLLOW_VOFF
+  DRIVER_C2_N15915 OR3_BASIC_GEN PARAMS: VDD=1 VSS=0 VTHRESH=500E-3
X_DRIVER_C2_S1    DRIVER_C2_N09088 0 VON CKV2 DRIVER_C_DRIVER_C2_S1 
X_DRIVER_C2_U31         FOLLOW_VOFF DRIVER_C2_N78249 INV_BASIC_GEN PARAMS:
+  VDD=1 VSS=0 VTHRESH=500E-3
X_DRIVER_C2_U6         DRIVER_C2_HIGH_IMP_X DRIVER_C2_N08884 INV_BASIC_GEN
+  PARAMS: VDD=1 VSS=0 VTHRESH=500E-3
X_DRIVER_C2_U30         DRIVER_C2_N07879 DRIVER_C2_N71007 BUF_DELAY_BASIC_GEN
+  PARAMS: VDD=1 VSS=0 VTHRESH=0.5 DELAY=40n
X_DRIVER_C2_U17         DRIVER_C2_N08792 DLY_INT DRIVER_C2_COND_STV_LOW
+  AND2_BASIC_GEN PARAMS: VDD=1 VSS=0 VTHRESH=500E-3
X_DRIVER_C2_U27         DRIVER_C2_COND_STV_LOW DRIVER_C2_QB DRIVER_C2_N15575
+  AND2_BASIC_GEN PARAMS: VDD=1 VSS=0 VTHRESH=500E-3
X_DRIVER_C2_S2    DRIVER_C2_N09176 0 CKV2 VOFF DRIVER_C_DRIVER_C2_S2 
X_DRIVER_C2_U29         STV_INT CPV2_INT DRIVER_C2_N91221 NOR2_BASIC_GEN
+  PARAMS: VDD=1 VSS=0 VTHRESH=500E-3
X_DRIVER_C2_U25         DRIVER_C2_N15791 DRIVER_C2_N15915 DRIVER_C2_N16011
+  AND2_BASIC_GEN PARAMS: VDD=1 VSS=0 VTHRESH=500E-3
X_U8         CPV2 N118164 CPV2_INT COMP_BASIC_GEN PARAMS: VDD=1 VSS=0
+  VTHRESH=0.5
V_V1         N117413 0 2
V_V4         N118164 0 2
X_U3          N113285 CKV2 DC_1mV_1mA_1V_1nA
X_DRIVER_C1_U34         FOLLOW_VOFF DRIVER_C1_N80235 INV_BASIC_GEN PARAMS:
+  VDD=1 VSS=0 VTHRESH=500E-3
X_DRIVER_C1_U3         STV_INT DRIVER_C1_N37834 DLY_INT
+  DRIVER_C1_COND_STV_HIGH_B AND3_BASIC_GEN PARAMS: VDD=1 VSS=0 VTHRESH=500E-3
X_DRIVER_C1_U13         CPV1_INT DRIVER_C1_N05917 INV_BASIC_GEN PARAMS: VDD=1
+  VSS=0 VTHRESH=500E-3
X_DRIVER_C1_U1         STV_INT CPV1_INT DLY_INT DRIVER_C1_COND_STV_HIGH
+  AND3_BASIC_GEN PARAMS: VDD=1 VSS=0 VTHRESH=500E-3
X_DRIVER_C1_U5         DRIVER_C1_N78249 DRIVER_C1_N09084 DRIVER_C1_N08884
+  DRIVER_C1_N09088 AND3_BASIC_GEN PARAMS: VDD=1 VSS=0 VTHRESH=500E-3
X_DRIVER_C1_S3    DRIVER_C1_N15923 0 VON CKVB1 DRIVER_C_DRIVER_C1_S3 
X_DRIVER_C1_U16         DRIVER_C1_N07578 DRIVER_C1_N07648 DRIVER_C1_N07879
+  OR2_BASIC_GEN PARAMS: VDD=1 VSS=0 VTHRESH=500E-3
X_DRIVER_C1_U36         DLY_INT STV_INT DRIVER_C1_N59931 DRIVER_C1_RB
+  NAND3_BASIC_GEN PARAMS: VDD=1 VSS=0 VTHRESH=500E-3
X_DRIVER_C1_U33         FOLLOW_VOFF DRIVER_C1_N71803 INV_BASIC_GEN PARAMS:
+  VDD=1 VSS=0 VTHRESH=500E-3
X_DRIVER_C1_U8         DRIVER_C1_COND_STV_HIGH_B DRIVER_C1_N15575
+  DRIVER_C1_N15753 OR2_BASIC_GEN PARAMS: VDD=1 VSS=0 VTHRESH=500E-3
X_DRIVER_C1_S4    DRIVER_C1_N16011 0 CKVB1 VOFF DRIVER_C_DRIVER_C1_S4 
X_DRIVER_C1_U28         DRIVER_C1_Q DRIVER_C1_QB DRIVER_C1_N24052 DRIVER_C1_QB
+  DRIVER_C1_RB DRIVER_C1_SB DFFSBRB_RHPBASIC_GEN PARAMS: VDD=1 VSS=0
+  VTHRESH=500E-3
X_DRIVER_C1_U2         STV_INT DRIVER_C1_N08792 INV_BASIC_GEN PARAMS: VDD=1
+  VSS=0 VTHRESH=500E-3
X_DRIVER_C1_U10         DRIVER_C1_COND_STV_HIGH_B DRIVER_C1_N08996 FOLLOW_VOFF
+  DRIVER_C1_N09080 OR3_BASIC_GEN PARAMS: VDD=1 VSS=0 VTHRESH=500E-3
X_DRIVER_C1_U35         DLY_INT STV_INT CPV1_INT DRIVER_C1_SB NAND3_BASIC_GEN
+  PARAMS: VDD=1 VSS=0 VTHRESH=500E-3
X_DRIVER_C1_U22         DRIVER_C1_HIGH_IMP_X DRIVER_C1_N15791 INV_BASIC_GEN
+  PARAMS: VDD=1 VSS=0 VTHRESH=500E-3
X_DRIVER_C1_U15         UVLO_OUT DRIVER_C1_N07578 INV_BASIC_GEN PARAMS: VDD=1
+  VSS=0 VTHRESH=500E-3
X_DRIVER_C1_U18         DRIVER_C1_N80235 DRIVER_C1_N15753 DRIVER_C1_N15791
+  DRIVER_C1_N15923 AND3_BASIC_GEN PARAMS: VDD=1 VSS=0 VTHRESH=500E-3
X_DRIVER_C1_U7         CPV1_INT DLY_INT DRIVER_C1_N24052 AND2_BASIC_GEN PARAMS:
+  VDD=1 VSS=0 VTHRESH=500E-3
X_DRIVER_C1_U20         DRIVER_C1_COND_STV_LOW DRIVER_C1_QB DRIVER_C1_N08996
+  AND2_BASIC_GEN PARAMS: VDD=1 VSS=0 VTHRESH=500E-3
X_DRIVER_C1_U23         DLY_INT DRIVER_C1_N28526 N10610 AND2_BASIC_GEN PARAMS:
+  VDD=1 VSS=0 VTHRESH=500E-3
X_DRIVER_C1_U26         CPV1_INT DRIVER_C1_N37834 INV_BASIC_GEN PARAMS: VDD=1
+  VSS=0 VTHRESH=500E-3
X_DRIVER_C1_U4         DRIVER_C1_COND_STV_HIGH DRIVER_C1_N12922
+  DRIVER_C1_N09084 OR2_BASIC_GEN PARAMS: VDD=1 VSS=0 VTHRESH=500E-3
X_DRIVER_C1_U11         DRIVER_C1_N08884 DRIVER_C1_N09080 DRIVER_C1_N09176
+  AND2_BASIC_GEN PARAMS: VDD=1 VSS=0 VTHRESH=500E-3
X_DRIVER_C1_U32         CPV1_INT DRIVER_C1_N59931 INV_BASIC_GEN PARAMS: VDD=1
+  VSS=0 VTHRESH=500E-3
X_DRIVER_C1_U19         DRIVER_C1_COND_STV_LOW DRIVER_C1_Q DRIVER_C1_N12922
+  AND2_BASIC_GEN PARAMS: VDD=1 VSS=0 VTHRESH=500E-3
X_DRIVER_C1_U37         DRIVER_C1_N91221 DRIVER_C1_N28526 BUF_DELAY_BASIC_GEN
+  PARAMS: VDD=1 VSS=0 VTHRESH=0.5 DELAY=60n
X_DRIVER_C1_U12         STV_INT DRIVER_C1_N05853 INV_BASIC_GEN PARAMS: VDD=1
+  VSS=0 VTHRESH=500E-3
X_DRIVER_C1_U14         DRIVER_C1_N05853 DLY_INT DRIVER_C1_N05917
+  DRIVER_C1_N07648 AND3_BASIC_GEN PARAMS: VDD=1 VSS=0 VTHRESH=500E-3
X_DRIVER_C1_U9         DRIVER_C1_N71007 DRIVER_C1_N71803 DRIVER_C1_HIGH_IMP_X
+  AND2_BASIC_GEN PARAMS: VDD=1 VSS=0 VTHRESH=500E-3
X_DRIVER_C1_U21         DRIVER_C1_COND_STV_LOW DRIVER_C1_Q DRIVER_C1_N15829
+  AND2_BASIC_GEN PARAMS: VDD=1 VSS=0 VTHRESH=500E-3
X_DRIVER_C1_U24         DRIVER_C1_COND_STV_HIGH DRIVER_C1_N15829 FOLLOW_VOFF
+  DRIVER_C1_N15915 OR3_BASIC_GEN PARAMS: VDD=1 VSS=0 VTHRESH=500E-3
X_DRIVER_C1_S1    DRIVER_C1_N09088 0 VON CKV1 DRIVER_C_DRIVER_C1_S1 
X_DRIVER_C1_U31         FOLLOW_VOFF DRIVER_C1_N78249 INV_BASIC_GEN PARAMS:
+  VDD=1 VSS=0 VTHRESH=500E-3
X_DRIVER_C1_U6         DRIVER_C1_HIGH_IMP_X DRIVER_C1_N08884 INV_BASIC_GEN
+  PARAMS: VDD=1 VSS=0 VTHRESH=500E-3
X_DRIVER_C1_U30         DRIVER_C1_N07879 DRIVER_C1_N71007 BUF_DELAY_BASIC_GEN
+  PARAMS: VDD=1 VSS=0 VTHRESH=0.5 DELAY=40n
X_DRIVER_C1_U17         DRIVER_C1_N08792 DLY_INT DRIVER_C1_COND_STV_LOW
+  AND2_BASIC_GEN PARAMS: VDD=1 VSS=0 VTHRESH=500E-3
X_DRIVER_C1_U27         DRIVER_C1_COND_STV_LOW DRIVER_C1_QB DRIVER_C1_N15575
+  AND2_BASIC_GEN PARAMS: VDD=1 VSS=0 VTHRESH=500E-3
X_DRIVER_C1_S2    DRIVER_C1_N09176 0 CKV1 VOFF DRIVER_C_DRIVER_C1_S2 
X_DRIVER_C1_U29         STV_INT CPV1_INT DRIVER_C1_N91221 NOR2_BASIC_GEN
+  PARAMS: VDD=1 VSS=0 VTHRESH=500E-3
X_DRIVER_C1_U25         DRIVER_C1_N15791 DRIVER_C1_N15915 DRIVER_C1_N16011
+  AND2_BASIC_GEN PARAMS: VDD=1 VSS=0 VTHRESH=500E-3
X_S2    N10610 0 N12045 CKVCS1 TPS65193_S2 
X_U4          N113301 CKVB2 DC_1mV_1mA_1V_1nA
X_S5    N130828 0 N128939 0 TPS65193_S5 
X_S3    N113253 0 N113285 CKVBCS2 TPS65193_S3 
D_D3         N12045 CKVB1 D_D2 
X_S4    N113253 0 N113301 CKVCS2 TPS65193_S4 
X_DRIVER_S_U9         UVLO_OUT DRIVER_S_N50180 INV_BASIC_GEN PARAMS: VDD=1
+  VSS=0 VTHRESH=500E-3
X_DRIVER_S_U10         CPV1_INT DRIVER_S_N00471 INV_BASIC_GEN PARAMS: VDD=1
+  VSS=0 VTHRESH=500E-3
X_DRIVER_S_U1         STV_INT DRIVER_S_N00471 DLY_INT DRIVER_S_N00536
+  AND3_BASIC_GEN PARAMS: VDD=1 VSS=0 VTHRESH=500E-3
X_DRIVER_S_U18         DRIVER_S_N81311 DRIVER_S_N00536 DRIVER_S_N00550
+  DRIVER_S_N87318 AND3_BASIC_GEN PARAMS: VDD=1 VSS=0 VTHRESH=500E-3
X_DRIVER_S_U14         DRIVER_S_N52759 DRIVER_S_N82300 DRIVER_S_HIGH_IMP_S
+  AND2_BASIC_GEN PARAMS: VDD=1 VSS=0 VTHRESH=500E-3
X_DRIVER_S_U3         DLY_INT STV_INT CPV1_INT DRIVER_S_N50243 AND3_BASIC_GEN
+  PARAMS: VDD=1 VSS=0 VTHRESH=500E-3
X_DRIVER_S_U11         DRIVER_S_HIGH_IMP_S DRIVER_S_N00550 INV_BASIC_GEN
+  PARAMS: VDD=1 VSS=0 VTHRESH=500E-3
X_DRIVER_S_U33         FOLLOW_VOFF DRIVER_S_N82300 INV_BASIC_GEN PARAMS: VDD=1
+  VSS=0 VTHRESH=500E-3
X_DRIVER_S_U34         FOLLOW_VOFF DRIVER_S_N81311 INV_BASIC_GEN PARAMS: VDD=1
+  VSS=0 VTHRESH=500E-3
X_DRIVER_S_U13         DRIVER_S_N50180 DRIVER_S_N50243 DRIVER_S_N52759
+  OR2_BASIC_GEN PARAMS: VDD=1 VSS=0 VTHRESH=500E-3
X_DRIVER_S_U8         STV_INT DRIVER_S_N00680 INV_BASIC_GEN PARAMS: VDD=1 VSS=0
+  VTHRESH=500E-3
X_DRIVER_S_U6         DLY_INT DRIVER_S_N00680 DRIVER_S_N00848 AND2_BASIC_GEN
+  PARAMS: VDD=1 VSS=0 VTHRESH=500E-3
X_DRIVER_S_S1    DRIVER_S_N87130 0 VON STVP DRIVER_S_DRIVER_S_S1 
X_DRIVER_S_U35         DRIVER_S_N86586 DRIVER_S_N86650 BUF_DELAY_BASIC_GEN
+  PARAMS: VDD=1 VSS=0 VTHRESH=0.5 DELAY=30n
X_DRIVER_S_U12         DRIVER_S_N00848 FOLLOW_VOFF DRIVER_S_N00954
+  OR2_BASIC_GEN PARAMS: VDD=1 VSS=0 VTHRESH=500E-3
X_DRIVER_S_U36         DRIVER_S_N87318 DRIVER_S_N87130 BUF_DELAY_BASIC_GEN
+  PARAMS: VDD=1 VSS=0 VTHRESH=0.5 DELAY=15n
X_DRIVER_S_S2    DRIVER_S_N86650 0 STVP VOFF DRIVER_S_DRIVER_S_S2 
X_DRIVER_S_U5         DRIVER_S_N00550 DRIVER_S_N00954 DRIVER_S_N86586
+  AND2_BASIC_GEN PARAMS: VDD=1 VSS=0 VTHRESH=500E-3
X_S1    N10610 0 N11665 CKVBCS1 TPS65193_S1 
X_U7         CPV1 N117865 CPV1_INT COMP_BASIC_GEN PARAMS: VDD=1 VSS=0
+  VTHRESH=0.5
R_R2         VOFF N128939  1k  
.IC         V(DLY )=0
.ENDS TPS65193
*$
.subckt DRIVER_C_DRIVER_C2_S3 1 2 3 4  
S_DRIVER_C2_S3         3 4 1 2 _DRIVER_C2_S3
RS_DRIVER_C2_S3         1 2 1G
.MODEL         _DRIVER_C2_S3 VSWITCH Roff=10e6 Ron=37.5 Voff=0.2 Von=0.8
.ends DRIVER_C_DRIVER_C2_S3
*$
.subckt DRIVER_C_DRIVER_C2_S4 1 2 3 4  
S_DRIVER_C2_S4         3 4 1 2 _DRIVER_C2_S4
RS_DRIVER_C2_S4         1 2 1G
.MODEL         _DRIVER_C2_S4 VSWITCH Roff=10e6 Ron=30 Voff=0.2 Von=0.8
.ends DRIVER_C_DRIVER_C2_S4
*$
.subckt DRIVER_C_DRIVER_C2_S1 1 2 3 4  
S_DRIVER_C2_S1         3 4 1 2 _DRIVER_C2_S1
RS_DRIVER_C2_S1         1 2 1G
.MODEL         _DRIVER_C2_S1 VSWITCH Roff=10e6 Ron=37.5 Voff=0.2 Von=0.8
.ends DRIVER_C_DRIVER_C2_S1
*$
.subckt DRIVER_C_DRIVER_C2_S2 1 2 3 4  
S_DRIVER_C2_S2         3 4 1 2 _DRIVER_C2_S2
RS_DRIVER_C2_S2         1 2 1G
.MODEL         _DRIVER_C2_S2 VSWITCH Roff=10e6 Ron=30 Voff=0.2 Von=0.8
.ends DRIVER_C_DRIVER_C2_S2
*$
.subckt DRIVER_C_DRIVER_C1_S3 1 2 3 4  
S_DRIVER_C1_S3         3 4 1 2 _DRIVER_C1_S3
RS_DRIVER_C1_S3         1 2 1G
.MODEL         _DRIVER_C1_S3 VSWITCH Roff=10e6 Ron=37.5 Voff=0.2 Von=0.8
.ends DRIVER_C_DRIVER_C1_S3
*$
.subckt DRIVER_C_DRIVER_C1_S4 1 2 3 4  
S_DRIVER_C1_S4         3 4 1 2 _DRIVER_C1_S4
RS_DRIVER_C1_S4         1 2 1G
.MODEL         _DRIVER_C1_S4 VSWITCH Roff=10e6 Ron=30 Voff=0.2 Von=0.8
.ends DRIVER_C_DRIVER_C1_S4
*$
.subckt DRIVER_C_DRIVER_C1_S1 1 2 3 4  
S_DRIVER_C1_S1         3 4 1 2 _DRIVER_C1_S1
RS_DRIVER_C1_S1         1 2 1G
.MODEL         _DRIVER_C1_S1 VSWITCH Roff=10e6 Ron=37.5 Voff=0.2 Von=0.8
.ends DRIVER_C_DRIVER_C1_S1
*$
.subckt DRIVER_C_DRIVER_C1_S2 1 2 3 4  
S_DRIVER_C1_S2         3 4 1 2 _DRIVER_C1_S2
RS_DRIVER_C1_S2         1 2 1G
.MODEL         _DRIVER_C1_S2 VSWITCH Roff=10e6 Ron=30 Voff=0.2 Von=0.8
.ends DRIVER_C_DRIVER_C1_S2
*$
.subckt TPS65193_S2 1 2 3 4  
S_S2         3 4 1 2 _S2
RS_S2         1 2 1G
.MODEL         _S2 VSWITCH Roff=10e6 Ron=120 Voff=0.2 Von=0.8
.ends TPS65193_S2
*$
.subckt TPS65193_S5 1 2 3 4  
S_S5         3 4 1 2 _S5
RS_S5         1 2 1G
.MODEL         _S5 VSWITCH Roff=10e6 Ron=10 Voff=-0.2 Von=-0.6
.ends TPS65193_S5
*$
.subckt TPS65193_S3 1 2 3 4  
S_S3         3 4 1 2 _S3
RS_S3         1 2 1G
.MODEL         _S3 VSWITCH Roff=10e6 Ron=120 Voff=0.2 Von=0.8
.ends TPS65193_S3
*$
.subckt TPS65193_S4 1 2 3 4  
S_S4         3 4 1 2 _S4
RS_S4         1 2 1G
.MODEL         _S4 VSWITCH Roff=10e6 Ron=120 Voff=0.2 Von=0.8
.ends TPS65193_S4
*$
.subckt DRIVER_S_DRIVER_S_S1 1 2 3 4  
S_DRIVER_S_S1         3 4 1 2 _DRIVER_S_S1
RS_DRIVER_S_S1         1 2 1G
.MODEL         _DRIVER_S_S1 VSWITCH Roff=10e6 Ron=100 Voff=0.2 Von=0.8
.ends DRIVER_S_DRIVER_S_S1
*$
.subckt DRIVER_S_DRIVER_S_S2 1 2 3 4  
S_DRIVER_S_S2         3 4 1 2 _DRIVER_S_S2
RS_DRIVER_S_S2         1 2 1G
.MODEL         _DRIVER_S_S2 VSWITCH Roff=10e6 Ron=70 Voff=0.2 Von=0.8
.ends DRIVER_S_DRIVER_S_S2
*$
.subckt TPS65193_S1 1 2 3 4  
S_S1         3 4 1 2 _S1
RS_S1         1 2 1G
.MODEL         _S1 VSWITCH Roff=10e6 Ron=120 Voff=0.2 Von=0.8
.ends TPS65193_S1
*$
.SUBCKT COMP_BASIC_GEN INP INM Y PARAMS: VDD=1 VSS=0 VTHRESH=0.5	
E_ABM Yint 0 VALUE {IF (V(INP) > 
+ V(INM), {VDD},{VSS})}
R1 Yint Y 1
C1 Y 0 1n
.ENDS COMP_BASIC_GEN
*$
.SUBCKT COMPHYS_BASIC_GEN INP INM HYS OUT PARAMS: VDD=1 VSS=0 VTHRESH=0.5
EIN INP1 INM1 INP INM 1 
EHYS INP1 INP2 VALUE { IF( V(1) > {VTHRESH},-V(HYS),0) }
EOUT OUT 0 VALUE { IF( V(INP2)>V(INM1), {VDD} ,{VSS}) }
R1 OUT 1 1
C1 1 0 5n
RINP1 INP1 0 1K
.ENDS COMPHYS_BASIC_GEN
*$
.SUBCKT AND2_BASIC_GEN A B Y PARAMS: VDD=1 VSS=0 VTHRESH=0.5 
E_ABMGATE    YINT 0 VALUE {{IF(V(A) > {VTHRESH}  &  
+ V(B) > {VTHRESH},{VDD},{VSS})}}
RINT YINT Y 1
CINT Y 0 1n
.ENDS AND2_BASIC_GEN
*$
.SUBCKT AND3_BASIC_GEN A B C Y PARAMS: VDD=1 VSS=0 VTHRESH=0.5 
E_ABMGATE    YINT 0 VALUE {{IF(V(A) > {VTHRESH}  &  
+ V(B) > {VTHRESH} &
+ V(C) > {VTHRESH},{VDD},{VSS})}}
RINT YINT Y 1
CINT Y 0 1n
.ENDS AND3_BASIC_GEN
*$
.SUBCKT OR2_BASIC_GEN A B Y PARAMS: VDD=1 VSS=0 VTHRESH=0.5 
E_ABMGATE    YINT 0 VALUE {{IF(V(A) > {VTHRESH}  |  
+ V(B) > {VTHRESH},{VDD},{VSS})}}
RINT YINT Y 1
CINT Y 0 1n
.ENDS OR2_BASIC_GEN
*$
.SUBCKT OR3_BASIC_GEN A B C Y PARAMS: VDD=1 VSS=0 VTHRESH=0.5 
E_ABMGATE    YINT 0 VALUE {{IF(V(A) > {VTHRESH}  |  
+ V(B) > {VTHRESH} |
+ V(C) > {VTHRESH},{VDD},{VSS})}}
RINT YINT Y 1
CINT Y 0 1n
.ENDS OR3_BASIC_GEN
*$
.SUBCKT NAND3_BASIC_GEN A B C Y PARAMS: VDD=1 VSS=0 VTHRESH=0.5 
E_ABMGATE    YINT 0 VALUE {{IF(V(A) > {VTHRESH}  &  
+ V(B) > {VTHRESH} &
+ V(C) > {VTHRESH},{VSS},{VDD})}}
RINT YINT Y 1
CINT Y 0 1n
.ENDS NAND3_BASIC_GEN
*$
.SUBCKT NOR2_BASIC_GEN A B Y PARAMS: VDD=1 VSS=0 VTHRESH=0.5 
E_ABMGATE    YINT 0 VALUE {{IF(V(A) > {VTHRESH}  |  
+ V(B) > {VTHRESH},{VSS},{VDD})}}
RINT YINT Y 1
CINT Y 0 1n
.ENDS NOR2_BASIC_GEN
*$
.SUBCKT INV_BASIC_GEN A  Y PARAMS: VDD=1 VSS=0 VTHRESH=0.5 
E_ABMGATE    YINT 0 VALUE {{IF(V(A) > {VTHRESH} , 
+ {VSS},{VDD})}}
RINT YINT Y 1
CINT Y 0 1n
.ENDS INV_BASIC_GEN
*$
.SUBCKT DFFSBRB_RHPBASIC_GEN Q QB CLK D RB SB PARAMS: VDD=1 VSS=0 VTHRESH=0.5 
***Set has higher priority in this
** Changed the delay from 7n/10n to 15n/20n to help larger time step simulations
**Faster flip-flops require a a smaller time step to simulate
X1 CLK CLKdel INV_DELAY_BASIC_GEN PARAMS: VDD={VDD} VSS={VSS} VTHRESH={VTHRESH} DELAY = 15n
X2 CLK CLKdel CLKint AND2_BASIC_GEN PARAMS: VDD={VDD} VSS={VSS} VTHRESH={VTHRESH} 
GQ 0 Qint VALUE = {IF(V(RB) < {VTHRESH},-5,IF(V(SB)< {VTHRESH},5, IF(V(CLKint)> {VTHRESH}, 
+ IF(V(D)> {VTHRESH},5,-5),0)))}
CQint Qint 0 1n
RQint Qint 0 1000MEG
D_D10 Qint MY5 D_D1
V1 MY5 0 5
D_D11 0 Qint D_D1 
EQ Qqq 0 Qint 0 1
X3 Qqq Qqqd1 BUF_DELAY_BASIC_GEN PARAMS: VDD={VDD} VSS={VSS} VTHRESH={VTHRESH} DELAY = 20n
RQq Qqqd1 Q 1
EQb Qbr 0 VALUE = {IF( V(Q) > {VTHRESH}, {VSS},{VDD})}
RQb Qbr Qb 1 
Cdummy1 Q 0 1nF 
Cdummy2 QB 0 1nF 
.IC V(Qint) {VSS}
.ENDS DFFSBRB_RHPBASIC_GEN
*$
.SUBCKT INV_DELAY_BASIC_GEN A  Y PARAMS: VDD=1 VSS=0 VTHRESH=0.5 DELAY = 10n 
E_ABMGATE1    YINT1 0 VALUE {{IF(V(A) > {VTHRESH} , 
+ {VDD},{VSS})}}
RINT YINT1 YINT2 1
CINT YINT2 0 {DELAY*1.3}
E_ABMGATE2    YINT3 0 VALUE {{IF(V(YINT2) > {VTHRESH} , 
+ {VSS},{VDD})}}
RINT2 YINT3 Y 1
CINT2 Y 0 1n
.ENDS INV_DELAY_BASIC_GEN
*$
.SUBCKT BUF_DELAY_BASIC_GEN A  Y PARAMS: VDD=1 VSS=0 VTHRESH=0.5 DELAY = 10n 
E_ABMGATE1    YINT1 0 VALUE {{IF(V(A) > {VTHRESH} , 
+ {VDD},{VSS})}}
RINT YINT1 YINT2 1
CINT YINT2 0 {DELAY*1.3}
E_ABMGATE2    YINT3 0 VALUE {{IF(V(YINT2) > {VTHRESH} , 
+ {VDD},{VSS})}}
RINT2 YINT3 Y 1
CINT2 Y 0 1n
.ENDS BUF_DELAY_BASIC_GEN
*$
.subckt DC_1mV_1mA_1V_1nA A C
G1 A C TABLE { V(A, C) } ( (-1,-1n)(0,0)(1m,1m) (2m,100m) (3m,10) )
.ends DC_1mV_1mA_1V_1nA
*$
.subckt DC_1mV_1A_1V_1nA A C
G1 A C TABLE { V(A, C) } ( (-1,-1n)(0,0)(1m,1) (2m,10) (3m,1000) )
.ends DC_1mV_1A_1V_1nA 
*$
.MODEL D_D1 D( IS=1e-15 TT=10p Rs=0.05 N=.1  )
*$
.MODEL D_D2 D( VJ = 0.2 IS=1e-15 TT=10p Rs=0.05 N=.1  )
*$

