*$
* TPS62092
*****************************************************************************
* (C) Copyright 2012 Texas Instruments Incorporated. All rights reserved.
*****************************************************************************
** This model is designed as an aid for customers of Texas Instruments.
** TI and its licensors and suppliers make no warranties, either expressed
** or implied, with respect to this model, including the warranties of
** merchantability or fitness for a particular purpose. The model is
** provided solely on an "as is" basis. The entire risk as to its quality
** and performance is with the customer
*****************************************************************************
*
* Released by: WEBENCH Design Center, Texas Instruments Inc.
* Part: TPS62092
* Date: 29MAR2012
* Model Type: Transient
* Simulator: PSpice
* Simulator Version: 16.2
* EVM Users Guide: Based on SLVU670 – March 2012
* Datasheet: SLVSAW2A - March 2012 - Revised March 2012
* Model Version: Final 1.00
*
*****************************************************************************
*
* Updates:
*
* Final 1.00
* Release to Web
*
*
***************************************
.SUBCKT TPS62092_TRANS  SS AVIN PVIN1 PVIN2 EN PGND1 PGND2 VOS AGND2 C_N C_P AGND1 FB PG FREQ SW1 SW2
Rfreq   FREQ 0 400k
Rfb1    VOS FB_INT 425k
Rfb2    FB_INT 0 200k
R_R10         PVIN PVIN2  1m  
R_R12         SW2 SW  1m  
X_U12_S5    U12_N16803351 0 U12_N16803282 0 Current_Limit_U12_S5 
R_U12_R12         U12_RS_8_CYCLE U12_N16807543  150  
C_U12_C6         0 U12_N16807543  1n IC=0 
C_U12_C10         0 U12_HSLIMIT_THRESH  1n  
X_U12_U625         CLIMIT_HS U12_N16807543 U12_N16803351 OR2_BASIC_GEN PARAMS:
+  VDD=1 VSS=0 VTHRESH=500E-3
X_U12_U619         U12_N16803282 U12_N16803299 U12_N16803181 COMP_BASIC_GEN
+  PARAMS: VDD=1 VSS=0 VTHRESH=0.5
D_U12_D11         U12_N16774792 U12_N16774858 D_D1 
V_U12_V9         U12_N16803299 0 7.5
X_U12_U3         ISENSE_HS U12_HSLIMIT_THRESH U12_N16849423 COMP_BASIC_GEN
+  PARAMS: VDD=1 VSS=0 VTHRESH=0.5
V_U12_V5         U12_N55010 0 4.6
X_U12_S3    U12_HICCUP_RESET 0 U12_N16774792 0 Current_Limit_U12_S3 
X_U12_U4         U12_N16849423 DRVH_PRE U12_N16849411 AND2_BASIC_GEN PARAMS:
+  VDD=1 VSS=0 VTHRESH=500E-3
D_U12_D13         U12_N16803282 U12_N16803326 D_D1 
G_U12_ABMII1         0 U12_N16774792 VALUE { V(U12_N16774898)    }
R_U12_R3         HICCUP U12_N16774450  1  
C_U12_C8         0 U12_N16849417  1n  
D_U12_D14         U12_RS_8_CYCLE U12_N16807543 D_D1 
C_U12_C4         0 HICCUP  1n  
R_U12_R9         U12_N16849411 U12_N16849417  25  
C_U12_C9         0 U12_N16803282  20n IC=0 
D_U12_U12         U12_N16849417 U12_N16849411 D_D1
C_U12_C5         0 U12_N16805640  10n IC=0 
C_U12_C3         0 U12_N16774792  20n IC=0 
R_U12_R7         0 U12_N16774934  1e8  
X_U12_U618         DRVH_PRE U12_N16803342 U12_N16803354 MONOPOS_PS PARAMS:
+  PW=20n
X_U12_U13         U12_N16849417 CLIMIT_HS BUF_BASIC_GEN PARAMS: VDD=1 VSS=0
+  VTHRESH=0.5
R_U12_R5         U12_RS_8_CYCLE U12_N16803181  1  
C_U12_C7         0 U12_RS_8_CYCLE  1n  
X_U12_U612         U12_N16774792 U12_N16774804 U12_N16774450 COMP_BASIC_GEN
+  PARAMS: VDD=1 VSS=0 VTHRESH=0.5
R_U12_R11         0 U12_N16803354  1e8  
D_U12_D12         U12_N16805640 HICCUP D_D1 
X_U12_U613         MIN_TOFF_CL U12_N16774898 U12_N16774934 MONOPOS_PS PARAMS:
+  PW=20n
V_U12_V3         U12_N16774858 0 33
E_U12_ABM5         U12_N549041 0 VALUE { IF(V(VOS) < 0.6, 1.53,  
+ V(U12_N55010))   }
V_U12_V8         U12_N16803326 0 10
V_U12_V4         U12_N16774804 0 31.5
G_U12_ABMII2         0 U12_N16803282 VALUE { V(U12_N16803342)    }
R_U12_R8         HICCUP U12_N16805640  9.504k  
R_U12_R10         U12_N549041 U12_HSLIMIT_THRESH  1  
X_U12_U622         U12_RS_8_CYCLE U12_N16805640 U12_HICCUP_RESET OR2_BASIC_GEN
+  PARAMS: VDD=1 VSS=0 VTHRESH=500E-3
X_U7_U4         U7_N33832 U7_N33808 BUF_DELAY_BASIC_GEN PARAMS: VDD=1 VSS=0
+  VTHRESH=0.5 DELAY=6n
X_U7_H1    PVIN U7_N16766543 ISENSE_HS 0 Driver_U7_H1 
D_U7_D11         SW U7_N16766543 D_D1 
X_U7_S9    U7_DRVH_PRE_N 0 C_N 0 Driver_U7_S9 
X_U7_U2         U7_N33760 U7_N33764 DRVH_PRE AND2_BASIC_GEN PARAMS: VDD=1 VSS=0
+  VTHRESH=500E-3
X_U7_S10    DRVH_PRE 0 PVIN C_N Driver_U7_S10 
X_U7_S3    U7_DRVH 0 U7_N16766543 SW Driver_U7_S3 
X_U7_U11         HS_ON U7_N33760 BUF_DELAY_BASIC_GEN PARAMS: VDD=1 VSS=0
+  VTHRESH=0.5 DELAY=8n
X_U7_S6    U7_DRVL_PRE_N 0 U7_DRVL 0 Driver_U7_S6 
X_U7_S2    DRVH_PRE 0 C_P U7_DRVH Driver_U7_S2 
X_U7_U616         DRVL_PRE U7_DRVL_PRE_N INV_BASIC_GEN PARAMS: VDD=1 VSS=0
+  VTHRESH=500E-3
X_U7_U610         DRVH_PRE U7_DRVH_PRE_N INV_BASIC_GEN PARAMS: VDD=1 VSS=0
+  VTHRESH=500E-3
X_U7_H2    U7_N16766531 0 0 ISENSE_LS Driver_U7_H2 
D_U7_D12         U7_N16766531 SW D_D1 
X_U7_S7    DRVL_PRE 0 PVIN U7_DRVL Driver_U7_S7 
X_U7_U12         LS_ON U7_N33832 BUF_DELAY_BASIC_GEN PARAMS: VDD=1 VSS=0
+  VTHRESH=0.5 DELAY=8n
X_U7_S5    U7_DRVH_PRE_N 0 U7_DRVH 0 Driver_U7_S5 
X_U7_S4    U7_DRVL 0 SW U7_N16766531 Driver_U7_S4 
X_U7_U3         U7_N33832 U7_N33808 DRVL_PRE AND2_BASIC_GEN PARAMS: VDD=1 VSS=0
+  VTHRESH=500E-3
X_U7_S8    U7_DRVH_PRE_N 0 PVIN C_P Driver_U7_S8 
X_U7_U1         U7_N33760 U7_N33764 BUF_DELAY_BASIC_GEN PARAMS: VDD=1 VSS=0
+  VTHRESH=0.5 DELAY=6n
X_U14         MIN_TOFF_CL MIN_TOFF_CL_N INV_BASIC_GEN PARAMS: VDD=1 VSS=0
+  VTHRESH=500E-3
V_U3_V5         U3_N11301 0 1.2
X_U3_S2    U3_N16529568 0 VIN U3_N131034 Mintoff_U3_S2 
R_U3_R1         U3_N132734 U3_N136828  1  
D_U3_U10         U3_N10915 U3_N11301 D_D1
C_U3_C3         U3_N131034 VIN  600f  
E_U3_ABM1         U3_N132734 0 VALUE { IF(V(U3_N131034) < (V(VIN)/2) , 1, 0)   
+  }
G_U3_ABMI1         U3_N131034 0 VALUE {  V(VOS)/210k    }
X_U3_S1    U3_N12733 0 U3_N10915 0 Mintoff_U3_S1 
X_U3_U23         U3_N16776747 U3_TOFF_RS MIN_TOFF_CL U3_N16529568
+  SRLATCHRHP_BASIC_GEN PARAMS: VDD=1 VSS=0 VTHRESH=0.5
X_U3_U11         DRVL_PRE U3_N12733 INV_BASIC_GEN PARAMS: VDD=1 VSS=0
+  VTHRESH=500E-3
D_U3_U12         U3_N136828 U3_N16519710 D_D1
X_U3_U9         U3_N14024 U3_N10915 ABS_MIN_TOFF COMP_BASIC_GEN PARAMS: VDD=1
+  VSS=0 VTHRESH=0.5
V_U3_V4         U3_N14024 0 667m
C_U3_C2         0 U3_N10915  480f  
X_U3_U621         U3_N136828 U3_N16519710 U3_TOFF_RS OR2_BASIC_GEN PARAMS:
+  VDD=1 VSS=0 VTHRESH=500E-3
R_U3_R272         U3_N136828 U3_N16519710  3.5  
C_U3_C4         0 U3_N136828  1n  
I_U3_I1         U3_N11301 U3_N10915 DC 6.4u  
X_U3_U622         MIN_TOFF_CL ABS_MIN_TOFF MIN_TOFF OR2_BASIC_GEN PARAMS: VDD=1
+  VSS=0 VTHRESH=500E-3
C_U3_C172         0 U3_N16519710  1n  
X_U3_U613         CLIMIT_HS U3_N16776747 U3_N16776937 MONOPOS_PS PARAMS: PW=20n
R_U3_R7         0 U3_N16776937  1e8  
X_U3         MIN_TON MIN_TON_N INV_BASIC_GEN PARAMS: VDD=1 VSS=0 VTHRESH=500E-3
X_S11    N301624 0 VOS 0 TPS62092_Toplevel_S11 
V_U1_V2         U1_N147219 0 0.76
G_U1_ABMII2         U1_N147365 U1_N147247 VALUE { V(U1_VCTRLM)    }
E_U1_ABM6         U1_N180936 0 VALUE { IF(V(HS_ON) > 0.5,1.65u,0)    }
D_U1_U9         0 U1_INNER_REF D_D1
R_U1_R11         U1_INNER_REF 0  2.4G  
X_U1_U11         U1_N264687 U1_N265822 PAUSE PWMIN MUX2_BASIC_GEN PARAMS: VDD=1
+  VSS=0 VTHRESH=0.5
X_U1_S3    SDWN_N 0 U1_INNER_FB U1_INNER_REF ErrorAmp_U1_S3 
C_U1_C9         0 U1_N148765  1n  
D_U1_U6         U1_INNER_REF U1_INNER_REF_CLAMP D_D1
R_U1_R3         U1_N147079 SW  667k  
X_U1_U4         U1_N147271 U1_N147377 N148783 U1_SOFTSTART SRLATCHRHP_BASIC_GEN
+  PARAMS: VDD=1 VSS=0 VTHRESH=0.5
C_U1_C3         U1_N147163 U1_INNER_REF  20p  
R_U1_R13         U1_VCLAMP U1_N273241  1  
V_U1_V1         U1_N147365 0 15m
X_U1_U5         SDWN_N U1_N147377 INV_BASIC_GEN PARAMS: VDD=1 VSS=0
+  VTHRESH=500E-3
X_U1_S1    U1_FBREF_SHORT 0 U1_INNER_FB U1_ISINK ErrorAmp_U1_S1 
E_U1_ABM10         U1_INNER_REF_CLAMP 0 VALUE { MIN(V(VIN),5)    }
E_U1_ABM8         U1_N195543 0 VALUE { IF(V(U1_N194443) > 0.5,V(U1_VCLAMP),  
+ 125n)   }
C_U1_C6         0 U1_N148771  1n  
R_U1_R17         0 SWBY4  500k  
R_U1_R6         U1_INNER_REF U1_ISINK  750k  
V_U1_V6         U1_N194447 0 0.744
R_U1_R15         U1_N148765 U1_N195543  1  
E_U1_ABM3         U1_N147133 0 VALUE { IF(V(U1_VCLAMP) > 125n, 125n,  
+ IF (V(U1_VCLAMP) <-125n,  
+ -125n,V(U1_VCLAMP)))  }
R_U1_R1         U1_INNER_FB U1_N147079  1.337MEG  
C_U1_C7         0 U1_VCLAMP  1n  
G_U1_ABMII3         U1_ISINK 0 VALUE { IF(V(MIN_TOFF_CL) > 0.5,125n,0)    }
C_U1_C1         VOS U1_INNER_FB  20p  
R_U1_R19         U1_N180936 U1_VCTRLM  1  
X_U1_U3         FB_INT U1_N147219 U1_N147271 COMP_BASIC_GEN PARAMS: VDD=1 VSS=0
+  VTHRESH=0.5
G_U1_ABM3I1         0 U1_INNER_REF VALUE { IF((V(SDWN_N) < 0.5) |  
+ (V(MIN_TOFF_CL) > 0.5),0,  
+ V(U1_N148405))  }
X_U1_U8         PAUSE P100 U1_FBREF_SHORT OR2_BASIC_GEN PARAMS: VDD=1 VSS=0
+  VTHRESH=500E-3
X_U1_U10         FB_INT U1_N194447 U1_N194443 COMP_BASIC_GEN PARAMS: VDD=1 VSS=0
+  VTHRESH=0.5
R_U1_R12         U1_N147133 U1_N148771  1  
X_U1_U2         U1_INNER_REF U1_INNER_FB U1_N264687 COMP_BASIC_GEN PARAMS:
+  VDD=1 VSS=0 VTHRESH=0.5
R_U1_R8         SWBY4 U1_N147079  844.4k  
X_U1_U7         U1_N148765 U1_N148771 U1_SOFTSTART U1_N148405 MUX2_BASIC_GEN
+  PARAMS: VDD=1 VSS=0 VTHRESH=0.5
R_U1_R7         0 U1_N147163  2.85k  
C_U1_C10         0 U1_VCTRLM  1n  
T_U1_T1         U1_N264687 0 U1_N265822 0 Z0=50 TD=300n  
R_U1_R20         0 U1_N265822  50  
D_U1_U1         U1_N147247 U1_N147365 D_D1
X_U1_S2    HS_ON 0 U1_N147247 U1_N147163 ErrorAmp_U1_S2 
E_U1_ABM4         U1_N273241 0 VALUE { LIMIT(((V(INT_VREF) -V(FB_INT))*5.3u),  
+ 500n,-500n)   }
V_V1         MODE 0 0Vdc
C_C4         FB_INT VOS  25p  
X_U9         MIN_TON_ABS MIN_TON_ABS_N INV_BASIC_GEN PARAMS: VDD=1 VSS=0
+  VTHRESH=500E-3
R_R16         AGND2 0  1m  
X_U6_U12         U6_N23722 ISENSE_LS U6_N14289 COMP_BASIC_GEN PARAMS: VDD=1
+  VSS=0 VTHRESH=0.5
X_U6_U14         U6_N15145 DRVH_PRE CAPRIO N20512 SRLATCHRHP_BASIC_GEN PARAMS:
+  VDD=1 VSS=0 VTHRESH=0.5
X_U6_U19         U6_N16390 U6_N16592 PAUSE AND2_BASIC_GEN PARAMS: VDD=1 VSS=0
+  VTHRESH=500E-3
D_U6_U17         U6_N16592 U6_N17195 D_D1
V_U6_V1         U6_N23722 0 1.5m
C_U6_C4         0 U6_N16592  1n  
X_U6_U18         DRVH_PRE DRVL_PRE U6_N17195 NOR2_BASIC_GEN PARAMS: VDD=1 VSS=0
+  VTHRESH=500E-3
X_U6_U16         MODE_LOGIC U6_N16390 INV_BASIC_GEN PARAMS: VDD=1 VSS=0
+  VTHRESH=500E-3
R_U6_R3         U6_N17195 U6_N16592  1.44k  
X_U6_U13         DRVL_PRE U6_N14289 U6_N15145 AND2_BASIC_GEN PARAMS: VDD=1
+  VSS=0 VTHRESH=500E-3
R_R5         0 FREQ  400k  
R_U5_R2         U5_N06376 U5_N06443  1  
X_U5_U10         HICCUP U5_N56049 INV_BASIC_GEN PARAMS: VDD=1 VSS=0
+  VTHRESH=500E-3
E_U5_ABM2         U5_N522161 0 VALUE { (V(U5_N06443) + 2.4)    }
C_U5_C3         0 U5_N03743  1n  
R_U5_R3         U5_N522161 U5_N03743  1  
C_U5_C2         0 U5_N06443  1n  
X_U5_U11         U5_N56049 UVLO_OUT EN_LOGIC U5_N12138 SDWN_N AND4_BASIC_GEN
+  PARAMS: VDD=1 VSS=0 VTHRESH=500E-3
X_U5_U5         VIN U5_N03743 UVLO_OUT COMP_BASIC_GEN PARAMS: VDD=1 VSS=0
+  VTHRESH=0.5
E_U5_ABM1         U5_N06376 0 VALUE { (V(UVLO_OUT) * -200m)    }
V_U5_V3         U5_N12138 0  
+PULSE 0 1 1u 10n 10n 1000 2000
R_R14         PVIN PVIN1  1m  
R_R11         VIN AVIN  1m  
X_U4         MIN_TOFF MIN_TOFF_N INV_BASIC_GEN PARAMS: VDD=1 VSS=0
+  VTHRESH=500E-3
C_C2         0 N73924  1n  
X_U13         ABS_MIN_TOFF ABS_MIN_TOFF_N INV_BASIC_GEN PARAMS: VDD=1 VSS=0
+  VTHRESH=500E-3
X_U2_U12         DRVH_PRE U2_N19880 INV_BASIC_GEN PARAMS: VDD=1 VSS=0
+  VTHRESH=500E-3
C_U2_C3         0 U2_N14352  5p  
X_U2_U9         U2_N14352 U2_N10820 MIN_TON COMP_BASIC_GEN PARAMS: VDD=1 VSS=0
+  VTHRESH=0.5
X_U2_U13         U2_N19580 U2_N19824 MIN_TON_ABS COMP_BASIC_GEN PARAMS: VDD=1
+  VSS=0 VTHRESH=0.5
R_U2_R2         SWBY4 U2_N14352  1.3MEG  
X_U2_S1    U2_N12733 0 U2_N10820 0 Minton_U2_S1 
X_U2_S3    FREQ 0 U2_N21998 U2_N10820 Minton_U2_S3 
C_U2_C4         0 U2_N19824  480p  
C_U2_C2         0 U2_N10820  1.9p  
V_U2_V4         U2_N19580 0 667m
D_U2_U10         U2_N19824 U2_N19572 D_D1
R_U2_R1         U2_N21998 VIN  630k  
X_U2_S2    U2_N19880 0 U2_N19824 0 Minton_U2_S2 
V_U2_V5         U2_N19572 0 1.2
X_U2_U11         DRVH_PRE U2_N12733 INV_BASIC_GEN PARAMS: VDD=1 VSS=0
+  VTHRESH=500E-3
I_U2_I1         U2_N19572 U2_N19824 DC 6.4m  
D_U19         N73924 N73876 D_D1
R_R15         SW1 SW  1m  
X_U11_U9         SDWN_N U11_SDWN INV_BASIC_GEN PARAMS: VDD=1 VSS=0
+  VTHRESH=500E-3
X_U11_S1    U11_N234157 0 SS 0 SoftStart_U11_S1 
E_U11_ABM2         U11_N222011 0 VALUE { {(LIMIT(V(SS), 0, 1.25)  
+ )*0.64}   }
X_U11_U10         U11_SDWN HICCUP U11_N234157 OR2_BASIC_GEN PARAMS: VDD=1 VSS=0
+  VTHRESH=500E-3
C_U11_C7         0 SS  5p  
E_U11_ABM1         U11_N220347 0 VALUE { IF(V(SDWN_N) < 0.5,0,1)    }
C_U11_C5         0 INT_VREF  1n  
C_U11_C4         0 U11_N220353  1n  
V_U11_V1         U11_N221204 0 4.8
G_U11_ABMII1         U11_N221204 SS VALUE { V(U11_N220353)*7.5u    }
R_U11_R10         U11_N222011 INT_VREF  1  
D_U11_U8         SS U11_N221204 D_D1
R_U11_R9         U11_N220353 U11_N220347  1  
D_U8_U12         U8_N96973 U8_HS_RST D_D1
X_U8_U798         CAPRIO SDWN U8_N145602 U8_LDRV_PBIASBAR U8_LS_RST
+  OR4_BASIC_GEN PARAMS: VDD=1 VSS=0 VTHRESH=500E-3
X_U8_U27         U8_N146321 U8_N146417 N146421 U8_N146275 SRLATCHRHP_BASIC_GEN
+  PARAMS: VDD=1 VSS=0 VTHRESH=0.5
C_U8_C1         0 U8_HS_RST  10p  
X_U8_U22         MIN_TOFF_N U8_PWM U8_N145602 AND2_BASIC_GEN PARAMS: VDD=1
+  VSS=0 VTHRESH=500E-3
X_U8_U18         U8_LS_SET U8_LS_RST U8_N97631 U8_LS_ON_PRE
+  SRLATCHRHP_BASIC_GEN PARAMS: VDD=1 VSS=0 VTHRESH=0.5
X_U8_U20         LS_ON U8_LS_ON_N INV_BASIC_GEN PARAMS: VDD=1 VSS=0
+  VTHRESH=500E-3
X_U8_U26         U8_N96933 MIN_TON_N MIN_TON_ABS_N U8_N109134 AND3_BASIC_GEN
+  PARAMS: VDD=1 VSS=0 VTHRESH=500E-3
X_U8_U800         DRVL_PRE U8_N146379 INV_DELAY_BASIC_GEN PARAMS: VDD=1 VSS=0
+  VTHRESH=0.5 DELAY=40n
X_U8_U28         U8_N146379 DRVL_PRE U8_N146321 AND2_BASIC_GEN PARAMS: VDD=1
+  VSS=0 VTHRESH=500E-3
X_U8_U8         U8_HS_SET U8_HS_RST HS_ON N96925 SRLATCHRHP_BASIC_GEN PARAMS:
+  VDD=1 VSS=0 VTHRESH=0.5
X_U8_U13         U8_HS_ON_N U8_N96933 U8_N97687 AND2_BASIC_GEN PARAMS: VDD=1
+  VSS=0 VTHRESH=500E-3
X_U8_U801         MIN_TOFF_CL_N SDWN U8_N146417 OR2_BASIC_GEN PARAMS: VDD=1
+  VSS=0 VTHRESH=500E-3
X_U8_U795         PWMIN SDWN U8_LDRV_PBIAS U8_LDRV_PBIASBAR
+  SRLATCHRHP_BASIC_GEN PARAMS: VDD=1 VSS=0 VTHRESH=0.5
X_U8_U799         U8_N109134 SDWN U8_N96973 OR2_BASIC_GEN PARAMS: VDD=1 VSS=0
+  VTHRESH=500E-3
X_U8_U29         PWMIN U8_N146417 U8_N146275 U8_PWM AND3_BASIC_GEN PARAMS:
+  VDD=1 VSS=0 VTHRESH=500E-3
X_U8_U7         U8_LS_ON_PRE SDWN_N U8_PWM U8_HS_SET AND3_BASIC_GEN PARAMS:
+  VDD=1 VSS=0 VTHRESH=500E-3
X_U8_U17         CAPRIO U8_N97707 INV_BASIC_GEN PARAMS: VDD=1 VSS=0
+  VTHRESH=500E-3
R_U8_R1         U8_N96973 U8_HS_RST  800  
X_U8_U15         U8_HS_ON_N U8_N97631 LS_ON AND2_BASIC_GEN PARAMS: VDD=1 VSS=0
+  VTHRESH=500E-3
X_U8_U797         U8_N97687 U8_N97707 SDWN_N U8_LDRV_PBIAS U8_LS_SET
+  AND4_BASIC_GEN PARAMS: VDD=1 VSS=0 VTHRESH=500E-3
X_U8_U14         HS_ON U8_HS_ON_N INV_BASIC_GEN PARAMS: VDD=1 VSS=0
+  VTHRESH=500E-3
X_U8_U9         U8_PWM U8_N96933 INV_BASIC_GEN PARAMS: VDD=1 VSS=0
+  VTHRESH=500E-3
R_R4         0 EN  400k  
R_R13         AGND1 0  1m  
X_U6         SDWN_N SDWN INV_BASIC_GEN PARAMS: VDD=1 VSS=0 VTHRESH=500E-3
X_U26         N73924 P100 BUF_BASIC_GEN PARAMS: VDD=1 VSS=0 VTHRESH=0.5
R_R9         PGND2 0  1m  
X_U4_U3         FSW_LOGIC U4_N19391 INV_BASIC_GEN PARAMS: VDD=1 VSS=0
+  VTHRESH=500E-3
C_U4_C1         0 EN_LOGIC  1n  
R_U4_R2         U4_N15867 MODE_LOGIC  1  
R_U4_R1         U4_N15535 EN_LOGIC  1  
C_U4_C4         0 FSW_LOGIC  1n  
R_U4_R4         U4_N17314 FSW_LOGIC  1  
E_U4_ABM2         U4_N15867 0 VALUE { IF(V(MODE) > 0.8,1,0)    }
E_U4_ABM4         U4_N17314 0 VALUE { IF(V(FREQ) > 0.895,1,0)    }
X_U4_S1    U4_N18546 0 EN 0 LogicTrans_U4_S1 
C_U4_C2         0 MODE_LOGIC  1n  
X_U4_U1         EN_LOGIC U4_N18546 INV_BASIC_GEN PARAMS: VDD=1 VSS=0
+  VTHRESH=500E-3
E_U4_ABM1         U4_N15535 0 VALUE { IF(V(EN) > 0.895,1,0)    }
X_U4_S3    U4_N19391 0 FREQ 0 LogicTrans_U4_S3 
R_R3         N73876 N73924  200k  
X_U27         HICCUP SDWN N301624 OR2_BASIC_GEN PARAMS: VDD=1 VSS=0
+  VTHRESH=500E-3
E_GAIN1         N73876 0 VALUE {1 * V(HS_ON)}
R_R8         PGND1 0  1m  
R_U10_R1         U10_N14627 U10_N00497  14.4k  
C_U10_C1         0 U10_N00497  1n  
X_U10_U10         U10_N00497 EN_LOGIC UVLO_OUT U10_N225619 NAND3_BASIC_GEN
+  PARAMS: VDD=1 VSS=0 VTHRESH=500E-3
R_U10_R4         U10_N2234591 U10_N222445  1  
E_U10_ABM7         U10_N222172 0 VALUE { (V(U10_N221839)+  
+ +V(U10_N222445))   }
E_U10_ABM4         U10_N2234591 0 VALUE { MAX(V(INT_VREF)*0.95,0.76)    }
C_U10_C6         0 U10_N221839  1n  
D_U10_U7         U10_N00497 U10_N14627 D_D1
C_U10_C4         0 U10_N222445  1n  
X_U10_U9         U10_N00497 U10_OUT2 BUF_BASIC_GEN PARAMS: VDD=1 VSS=0
+  VTHRESH=0.5
R_U10_R3         U10_N222172 U10_N14135  1  
X_U10_S1    U10_N225619 0 PG 0 PG_SGND_U10_S1 
E_U10_ABM6         U10_N2233831 0 VALUE { (V(INT_VREF)*-0.05*  
+ +V(U10_OUT2))   }
R_U10_R6         U10_N2233831 U10_N221839  1  
X_U10_U5         FB_INT U10_N14135 U10_N14627 COMP_BASIC_GEN PARAMS: VDD=1 VSS=0
+  VTHRESH=0.5
C_U10_C3         0 U10_N14135  1n  
.ENDS TPS62092_TRANS
*$
.subckt Current_Limit_U12_S5 1 2 3 4  
S_U12_S5         3 4 1 2 _U12_S5
RS_U12_S5         1 2 1G
.MODEL         _U12_S5 VSWITCH Roff=1e6 Ron=1m Voff=0.25 Von=0.75
.ends Current_Limit_U12_S5
*$
.subckt Current_Limit_U12_S3 1 2 3 4  
S_U12_S3         3 4 1 2 _U12_S3
RS_U12_S3         1 2 1G
.MODEL         _U12_S3 VSWITCH Roff=1e6 Ron=1m Voff=0.25 Von=0.75
.ends Current_Limit_U12_S3
*$
.subckt Driver_U7_H1 1 2 3 4  
H_U7_H1         3 4 VH_U7_H1 1
VH_U7_H1         1 2 0V
.ends Driver_U7_H1
*$
.subckt Driver_U7_S9 1 2 3 4  
S_U7_S9         3 4 1 2 _U7_S9
RS_U7_S9         1 2 1G
.MODEL         _U7_S9 VSWITCH Roff=1e6 Ron=1 Voff=0.2 Von=0.8
.ends Driver_U7_S9
*$
.subckt Driver_U7_S10 1 2 3 4  
S_U7_S10         3 4 1 2 _U7_S10
RS_U7_S10         1 2 1G
.MODEL         _U7_S10 VSWITCH Roff=1e6 Ron=1 Voff=0.2 Von=0.8
.ends Driver_U7_S10
*$
.subckt Driver_U7_S3 1 2 3 4  
S_U7_S3         3 4 1 2 _U7_S3
RS_U7_S3         1 2 1G
.MODEL         _U7_S3 VSWITCH Roff=10e6 Ron=50m Voff=0.2 Von=0.8
.ends Driver_U7_S3
*$
.subckt Driver_U7_S6 1 2 3 4  
S_U7_S6         3 4 1 2 _U7_S6
RS_U7_S6         1 2 1G
.MODEL         _U7_S6 VSWITCH Roff=1e6 Ron=1 Voff=0.2 Von=0.8
.ends Driver_U7_S6
*$
.subckt Driver_U7_S2 1 2 3 4  
S_U7_S2         3 4 1 2 _U7_S2
RS_U7_S2         1 2 1G
.MODEL         _U7_S2 VSWITCH Roff=1e6 Ron=1 Voff=0.2 Von=0.8
.ends Driver_U7_S2
*$
.subckt Driver_U7_H2 1 2 3 4  
H_U7_H2         3 4 VH_U7_H2 1
VH_U7_H2         1 2 0V
.ends Driver_U7_H2
*$
.subckt Driver_U7_S7 1 2 3 4  
S_U7_S7         3 4 1 2 _U7_S7
RS_U7_S7         1 2 1G
.MODEL         _U7_S7 VSWITCH Roff=1e6 Ron=1 Voff=0.2 Von=0.8
.ends Driver_U7_S7
*$
.subckt Driver_U7_S5 1 2 3 4  
S_U7_S5         3 4 1 2 _U7_S5
RS_U7_S5         1 2 1G
.MODEL         _U7_S5 VSWITCH Roff=1e6 Ron=1 Voff=0.2 Von=0.8
.ends Driver_U7_S5
*$
.subckt Driver_U7_S4 1 2 3 4  
S_U7_S4         3 4 1 2 _U7_S4
RS_U7_S4         1 2 1G
.MODEL         _U7_S4 VSWITCH Roff=10e6 Ron=40m Voff=0.2 Von=0.8
.ends Driver_U7_S4
*$
.subckt Driver_U7_S8 1 2 3 4  
S_U7_S8         3 4 1 2 _U7_S8
RS_U7_S8         1 2 1G
.MODEL         _U7_S8 VSWITCH Roff=1e6 Ron=1 Voff=0.2 Von=0.8
.ends Driver_U7_S8
*$
.subckt Mintoff_U3_S2 1 2 3 4  
S_U3_S2         3 4 1 2 _U3_S2
RS_U3_S2         1 2 1G
.MODEL         _U3_S2 VSWITCH Roff=10e6 Ron=1m Voff=0.2 Von=0.8
.ends Mintoff_U3_S2
*$
.subckt Mintoff_U3_S1 1 2 3 4  
S_U3_S1         3 4 1 2 _U3_S1
RS_U3_S1         1 2 1G
.MODEL         _U3_S1 VSWITCH Roff=10e6 Ron=1.0 Voff=0.2 Von=0.8
.ends Mintoff_U3_S1
*$
.subckt TPS62092_Toplevel_S11 1 2 3 4  
S_S11         3 4 1 2 _S11
RS_S11         1 2 1G
.MODEL         _S11 VSWITCH Roff=100e6 Ron=200 Voff=0.2 Von=0.8
.ends TPS62092_Toplevel_S11
*$
.subckt ErrorAmp_U1_S3 1 2 3 4  
S_U1_S3         3 4 1 2 _U1_S3
RS_U1_S3         1 2 1G
.MODEL         _U1_S3 VSWITCH Roff=1 Ron=10G Voff=0.2V Von=0.9V
.ends ErrorAmp_U1_S3
*$
.subckt ErrorAmp_U1_S1 1 2 3 4  
S_U1_S1         3 4 1 2 _U1_S1
RS_U1_S1         1 2 1G
.MODEL         _U1_S1 VSWITCH Roff=1000e6 Ron=1 Voff=0.4V Von=0.8V
.ends ErrorAmp_U1_S1
*$
.subckt ErrorAmp_U1_S2 1 2 3 4  
S_U1_S2         3 4 1 2 _U1_S2
RS_U1_S2         1 2 1G
.MODEL         _U1_S2 VSWITCH Roff=100e6 Ron=1m Voff=0.4V Von=0.8V
.ends ErrorAmp_U1_S2
*$
.subckt Minton_U2_S1 1 2 3 4  
S_U2_S1         3 4 1 2 _U2_S1
RS_U2_S1         1 2 1G
.MODEL         _U2_S1 VSWITCH Roff=100e6 Ron=1 Voff=0.2 Von=0.8
.ends Minton_U2_S1
*$
.subckt Minton_U2_S3 1 2 3 4  
S_U2_S3         3 4 1 2 _U2_S3
RS_U2_S3         1 2 1G
.MODEL         _U2_S3 VSWITCH Roff=1 Ron=630k Voff=0.2 Von=0.8
.ends Minton_U2_S3
*$
.subckt Minton_U2_S2 1 2 3 4  
S_U2_S2         3 4 1 2 _U2_S2
RS_U2_S2         1 2 1G
.MODEL         _U2_S2 VSWITCH Roff=10e6 Ron=1.0 Voff=0.2 Von=0.8
.ends Minton_U2_S2
*$
.subckt SoftStart_U11_S1 1 2 3 4  
S_U11_S1         3 4 1 2 _U11_S1
RS_U11_S1         1 2 1G
.MODEL         _U11_S1 VSWITCH Roff=1e9 Ron=100 Voff=0.2 Von=0.8
.ends SoftStart_U11_S1
*$
.subckt LogicTrans_U4_S1 1 2 3 4  
S_U4_S1         3 4 1 2 _U4_S1
RS_U4_S1         1 2 1G
.MODEL         _U4_S1 VSWITCH Roff=100e6 Ron=400k Voff=0.2 Von=0.8
.ends LogicTrans_U4_S1
*$
.subckt LogicTrans_U4_S3 1 2 3 4  
S_U4_S3         3 4 1 2 _U4_S3
RS_U4_S3         1 2 1G
.MODEL         _U4_S3 VSWITCH Roff=100e6 Ron=400k Voff=0.2 Von=0.8
.ends LogicTrans_U4_S3
*$
.subckt PG_SGND_U10_S1 1 2 3 4  
S_U10_S1         3 4 1 2 _U10_S1
RS_U10_S1         1 2 1G
.MODEL         _U10_S1 VSWITCH Roff=30e6 Ron=150 Voff=0.2V Von=0.8
.ends PG_SGND_U10_S1
*$
.MODEL D_D1 D( IS=1e-15 TT=10p Rs=0.05 N=.1  )
*$
.SUBCKT D_D1special 1 2
D1 1 2 DD1spec
.MODEL DD1spec D( IS=1e-15 TT=10p Rs=0.23 N=.1  )
.ENDS D_D1special
*$
.SUBCKT COMP_BASIC_GEN INP INM Y PARAMS: VDD=1 VSS=0 VTHRESH=0.5	
E_ABM Yint 0 VALUE {IF (V(INP) > 
+ V(INM), {VDD},{VSS})}
R1 Yint Y 1
C1 Y 0 1n
.ENDS COMP_BASIC_GEN
*$
.SUBCKT COMPHYS_BASIC_GEN INP INM HYS OUT PARAMS: VDD=1 VSS=0 VTHRESH=0.5	
EIN INP1 INM1 INP INM 1 
EHYS INP1 INP2 VALUE { IF( V(1) > {VTHRESH},-V(HYS),0) }
EOUT OUT 0 VALUE { IF( V(INP2)>V(INM1), {VDD} ,{VSS}) }
R1 OUT 1 1
C1 1 0 5n
RINP1 INP1 0 1K
.ENDS COMPHYS_BASIC_GEN
*$
.SUBCKT COMPHYS2_BASIC_GEN INP INM HYS OUT PARAMS: VDD=1 VSS=0 VTHRESH=0.5	
+ T=10
EIN INP1 INM1 INP INM 1 
EHYS INM2 INM1 VALUE { IF( V(1) > {VTHRESH},-V(HYS)/2,V(HYS)/2) }
EOUT OUT 0 VALUE { IF( V(INP1)>V(INM2), {VDD} ,{VSS}) }
R1 OUT 1 1
C1 1 0 {T*1e-9}
RINP1 INP1 0 10K
RINM2 INM2 0 10K
.ENDS COMPHYS2_BASIC_GEN
*$
.SUBCKT AND2_BASIC_GEN A B Y PARAMS: VDD=1 VSS=0 VTHRESH=0.5 
E_ABMGATE    YINT 0 VALUE {{IF(V(A) > {VTHRESH}  &  
+ V(B) > {VTHRESH},{VDD},{VSS})}}
RINT YINT Y 1
CINT Y 0 1n
.ENDS AND2_BASIC_GEN
*$
.SUBCKT AND3_BASIC_GEN A B C Y PARAMS: VDD=1 VSS=0 VTHRESH=0.5 
E_ABMGATE    YINT 0 VALUE {{IF(V(A) > {VTHRESH}  &  
+ V(B) > {VTHRESH} &
+ V(C) > {VTHRESH},{VDD},{VSS})}}
RINT YINT Y 1
CINT Y 0 1n
.ENDS AND3_BASIC_GEN
*$
.SUBCKT AND4_BASIC_GEN A B C D Y PARAMS: VDD=1 VSS=0 VTHRESH=0.5 
E_ABMGATE    YINT 0 VALUE {{IF(V(A) > {VTHRESH}  &  
+ V(B) > {VTHRESH} &
+ V(C) > {VTHRESH} &
+ V(D) > {VTHRESH},{VDD},{VSS})}}
RINT YINT Y 1
CINT Y 0 1n
.ENDS AND4_BASIC_GEN
*$
.SUBCKT NAND2_BASIC_GEN A B Y PARAMS: VDD=1 VSS=0 VTHRESH=0.5 
E_ABMGATE    YINT 0 VALUE {{IF(V(A) > {VTHRESH}  &  
+ V(B) > {VTHRESH},{VSS},{VDD})}}
RINT YINT Y 1
CINT Y 0 1n
.ENDS NAND2_BASIC_GEN
*$
.SUBCKT NAND3_BASIC_GEN A B C Y PARAMS: VDD=1 VSS=0 VTHRESH=0.5 
E_ABMGATE    YINT 0 VALUE {{IF(V(A) > {VTHRESH}  &  
+ V(B) > {VTHRESH} &
+ V(C) > {VTHRESH},{VSS},{VDD})}}
RINT YINT Y 1
CINT Y 0 1n
.ENDS NAND3_BASIC_GEN
*$
.SUBCKT NAND4_BASIC_GEN A B C D Y PARAMS: VDD=1 VSS=0 VTHRESH=0.5 
E_ABMGATE    YINT 0 VALUE {{IF(V(A) > {VTHRESH}  &  
+ V(B) > {VTHRESH} &
+ V(C) > {VTHRESH} &
+ V(D) > {VTHRESH},{VSS},{VDD})}}
RINT YINT Y 1
CINT Y 0 1n
.ENDS NAND4_BASIC_GEN
*$
.SUBCKT OR2_BASIC_GEN A B Y PARAMS: VDD=1 VSS=0 VTHRESH=0.5 
E_ABMGATE    YINT 0 VALUE {{IF(V(A) > {VTHRESH}  |  
+ V(B) > {VTHRESH},{VDD},{VSS})}}
RINT YINT Y 1
CINT Y 0 1n
.ENDS OR2_BASIC_GEN
*$
.SUBCKT OR3_BASIC_GEN A B C Y PARAMS: VDD=1 VSS=0 VTHRESH=0.5 
E_ABMGATE    YINT 0 VALUE {{IF(V(A) > {VTHRESH}  |  
+ V(B) > {VTHRESH} |
+ V(C) > {VTHRESH},{VDD},{VSS})}}
RINT YINT Y 1
CINT Y 0 1n
.ENDS OR3_BASIC_GEN
*$
.SUBCKT OR4_BASIC_GEN A B C D Y PARAMS: VDD=1 VSS=0 VTHRESH=0.5 
E_ABMGATE    YINT 0 VALUE {{IF(V(A) > {VTHRESH}  |  
+ V(B) > {VTHRESH} |
+ V(C) > {VTHRESH} |
+ V(D) > {VTHRESH},{VDD},{VSS})}}
RINT YINT Y 1
CINT Y 0 1n
.ENDS OR4_BASIC_GEN
*$
.SUBCKT NOR2_BASIC_GEN A B Y PARAMS: VDD=1 VSS=0 VTHRESH=0.5 
E_ABMGATE    YINT 0 VALUE {{IF(V(A) > {VTHRESH}  |  
+ V(B) > {VTHRESH},{VSS},{VDD})}}
RINT YINT Y 1
CINT Y 0 1n
.ENDS NOR2_BASIC_GEN
*$
.SUBCKT NOR3_BASIC_GEN A B C Y PARAMS: VDD=1 VSS=0 VTHRESH=0.5 
E_ABMGATE    YINT 0 VALUE {{IF(V(A) > {VTHRESH}  |  
+ V(B) > {VTHRESH} |
+ V(C) > {VTHRESH},{VSS},{VDD})}}
RINT YINT Y 1
CINT Y 0 1n
.ENDS NOR3_BASIC_GEN
*$
.SUBCKT NOR4_BASIC_GEN A B C D Y PARAMS: VDD=1 VSS=0 VTHRESH=0.5 
E_ABMGATE    YINT 0 VALUE {{IF(V(A) > {VTHRESH}  |  
+ V(B) > {VTHRESH} |
+ V(C) > {VTHRESH} |
+ V(D) > {VTHRESH},{VSS},{VDD})}}
RINT YINT Y 1
CINT Y 0 1n
.ENDS NOR4_BASIC_GEN
*$
.SUBCKT NOR5_BASIC_GEN A B C D E Y PARAMS: VDD=1 VSS=0 VTHRESH=0.5 
E_ABMGATE YINT 0 VALUE {{IF(V(A) > {VTHRESH}  |  
+ V(B) > {VTHRESH} |
+ V(C) > {VTHRESH} |
+ V(D) > {VTHRESH} |
+ V(E) > {VTHRESH},{VSS},{VDD})}}
RINT YINT Y 1
CINT Y 0 1n
.ENDS NOR5_BASIC_GEN
*$
.SUBCKT NOR6_BASIC_GEN A B C D E F Y PARAMS: VDD=1 VSS=0 VTHRESH=0.5 
E_ABMGATE YINT 0 VALUE {{IF(V(A) > {VTHRESH}  |  
+ V(B) > {VTHRESH} |
+ V(C) > {VTHRESH} |
+ V(D) > {VTHRESH} |
+ V(E) > {VTHRESH} |
+ V(F) > {VTHRESH},{VSS},{VDD})}}
RINT YINT Y 1
CINT Y 0 1n
.ENDS NOR6_BASIC_GEN
*$
.SUBCKT INV_BASIC_GEN A  Y PARAMS: VDD=1 VSS=0 VTHRESH=0.5 
E_ABMGATE    YINT 0 VALUE {{IF(V(A) > {VTHRESH} , 
+ {VSS},{VDD})}}
RINT YINT Y 1
CINT Y 0 1n
.ENDS INV_BASIC_GEN
*$
.SUBCKT XOR2_BASIC_GEN A B Y PARAMS: VDD=1 VSS=0 VTHRESH=0.5 
E_ABMGATE  YINT 0 VALUE {{IF(V(A) > {VTHRESH}  ^  
+ V(B) > {VTHRESH},{VDD},{VSS})}}
RINT YINT Y 1
CINT Y 0 1n
.ENDS XOR2_BASIC_GEN
*$
.SUBCKT XNOR2_BASIC_GEN A B Y PARAMS: VDD=1 VSS=0 VTHRESH=0.5 
E_ABMGATE  YINT 0 VALUE {{IF(V(A) > {VTHRESH}  ^  
+ V(B) > {VTHRESH},{VSS},{VDD})}}
RINT YINT Y 1
CINT Y 0 1n
.ENDS XNOR2_BASIC_GEN
*$
.SUBCKT MUX2_BASIC_GEN A B S Y PARAMS: VDD=1 VSS=0 VTHRESH=0.5 
E_ABMGATE  YINT 0 VALUE {{IF(V(S) > {VTHRESH},  
+ V(B),V(A))}}
RINT YINT Y 1
CINT Y 0 1n
.ENDS MUX2_BASIC_GEN
*$
.SUBCKT INV_DELAY_BASIC_GEN A  Y PARAMS: VDD=1 VSS=0 VTHRESH=0.5 DELAY = 10n 
E_ABMGATE1    YINT1 0 VALUE {{IF(V(A) > {VTHRESH} , 
+ {VDD},{VSS})}}
RINT YINT1 YINT2 1
CINT YINT2 0 {DELAY*1.3}
E_ABMGATE2    YINT3 0 VALUE {{IF(V(YINT2) > {VTHRESH} , 
+ {VSS},{VDD})}}
RINT2 YINT3 Y 1
CINT2 Y 0 1n
.ENDS INV_DELAY_BASIC_GEN
*$
.SUBCKT BUF_DELAY_BASIC_GEN A  Y PARAMS: VDD=1 VSS=0 VTHRESH=0.5 DELAY = 10n 
E_ABMGATE1    YINT1 0 VALUE {{IF(V(A) > {VTHRESH} , 
+ {VDD},{VSS})}}
RINT YINT1 YINT2 1
CINT YINT2 0 {DELAY*1.3}
E_ABMGATE2    YINT3 0 VALUE {{IF(V(YINT2) > {VTHRESH} , 
+ {VDD},{VSS})}}
RINT2 YINT3 Y 1
CINT2 Y 0 1n
.ENDS BUF_DELAY_BASIC_GEN
*$
.SUBCKT BUF_BASIC_GEN A  Y PARAMS: VDD=1 VSS=0 VTHRESH=0.5 
E_ABMGATE    YINT 0 VALUE {{IF(V(A) > {VTHRESH} , 
+ {VDD},{VSS})}}
RINT YINT Y 1
CINT Y 0 1n
.ENDS BUF_BASIC_GEN
*$
**Set has higher priority in this latch
.SUBCKT SRLATCHSHP_BASIC_GEN S R Q QB PARAMS: VDD=1 VSS=0 VTHRESH=0.5 
GQ 0 Qint VALUE = {IF(V(S) > {VTHRESH},5,IF(V(R)>{VTHRESH},-5, 0))}
CQint Qint 0 1n
RQint Qint 0 1000MEG
D_D10 Qint MY5 D_D1
V1 MY5 0 {VDD}
D_D11 MYVSS Qint D_D1
V2 MYVSS 0 {VSS} 
EQ Qqq 0 Qint 0 1
X3 Qqq Qqqd1 BUF_BASIC_GEN PARAMS: VDD={VDD} VSS={VSS} VTHRESH={VTHRESH}
RQq Qqqd1 Q 1
EQb Qbr 0 VALUE = {IF( V(Q) > {VTHRESH}, {VSS},{VDD})}
RQb Qbr QB 1 
Cdummy1 Q 0 1n 
Cdummy2 QB 0 1n 
.IC V(Qint) {VSS}
.ENDS SRLATCHSHP_BASIC_GEN
*$
**Reset has higher priority in this latch
.SUBCKT SRLATCHRHP_BASIC_GEN S R Q QB PARAMS: VDD=1 VSS=0 VTHRESH=0.5 
GQ 0 Qint VALUE = {IF(V(R) > {VTHRESH},-5,IF(V(S)>{VTHRESH},5, 0))}
CQint Qint 0 1n
RQint Qint 0 1000MEG
D_D10 Qint MY5 D_D1
V1 MY5 0 {VDD}
D_D11 MYVSS Qint D_D1
V2 MYVSS 0 {VSS} 
EQ Qqq 0 Qint 0 1
X3 Qqq Qqqd1 BUF_BASIC_GEN PARAMS: VDD={VDD} VSS={VSS} VTHRESH={VTHRESH}
RQq Qqqd1 Q 1
EQb Qbr 0 VALUE = {IF( V(Q) > {VTHRESH}, {VSS},{VDD})}
RQb Qbr QB 1 
Cdummy1 Q 0 1n 
Cdummy2 QB 0 1n
.IC V(Qint) {VSS}
.ENDS SRLATCHRHP_BASIC_GEN
*$
**Reset has higher priority in this latch and active low set and reset - basically NAND based SR latch
.SUBCKT SBRBLATCHRHP_BASIC_GEN SB RB Q QB PARAMS: VDD=1 VSS=0 VTHRESH=0.5 
GQ 0 Qint VALUE = {IF(V(RB) < {VTHRESH},-5,IF(V(SB) < {VTHRESH},5, 0))}
CQint Qint 0 1n
RQint Qint 0 1000MEG
D_D10 Qint MY5 D_D1
V1 MY5 0 {VDD}
D_D11 MYVSS Qint D_D1
V2 MYVSS 0 {VSS} 
EQ Qqq 0 Qint 0 1
X3 Qqq Qqqd1 BUF_BASIC_GEN PARAMS: VDD={VDD} VSS={VSS} VTHRESH={VTHRESH}
RQq Qqqd1 Q 1
EQb Qbr 0 VALUE = {IF( V(Q) > {VTHRESH}, {VSS},{VDD})}
RQb Qbr QB 1 
.IC V(Qint) {VSS}
.ENDS SBRBLATCHRHP_BASIC_GEN
*$
**Reset has higher priority in this latch and active low set and reset - basically NAND based SR latch
.SUBCKT SBRBLATCHSHP_BASIC_GEN SB RB Q QB PARAMS: VDD=1 VSS=0 VTHRESH=0.5 
GQ 0 Qint VALUE = {IF(V(SB) < {VTHRESH},5,IF(V(RB) < {VTHRESH},-5, 0))}
CQint Qint 0 1n
RQint Qint 0 1000MEG
D_D10 Qint MY5 D_D1
V1 MY5 0 {VDD}
D_D11 MYVSS Qint D_D1
V2 MYVSS 0 {VSS} 
EQ Qqq 0 Qint 0 1
X3 Qqq Qqqd1 BUF_BASIC_GEN PARAMS: VDD={VDD} VSS={VSS} VTHRESH={VTHRESH}
RQq Qqqd1 Q 1
EQb Qbr 0 VALUE = {IF( V(Q) > {VTHRESH}, {VSS},{VDD})}
RQb Qbr QB 1 
.IC V(Qint) {VSS}
.ENDS SBRBLATCHSHP_BASIC_GEN
*$
.SUBCKT DFFSBRB_SHPBASIC_GEN Q QB CLK D RB SB PARAMS: VDD=1 VSS=0 VTHRESH=0.5 
***Set has higher priority in this
** Changed the delay from 7n/10n to 15n/20n to help larger time step simulations
**Faster flip-flops require a a smaller time step to simulate