*$
* TPS63802
*****************************************************************************
* (C) Copyright 2018 Texas Instruments Incorporated. All rights reserved.                                            
*****************************************************************************
** This model is designed as an aid for customers of Texas Instruments.
** TI and its licensors and suppliers make no warranties, either expressed
** or implied, with respect to this model, including the warranties of 
** merchantability or fitness for a particular purpose.  The model is
** provided solely on an "as is" basis.  The entire risk as to its quality
** and performance is with the customer
*****************************************************************************
*
* This model is subject to change without notice. Texas Instruments
* Incorporated is not responsible for updating this model.
*
*****************************************************************************
*
** Released by: Texas Instruments Inc.
* Part: TPS63802
* Date: 03APR2019
* Model Type: TRANSIENT
* Simulator: PSPICE
* Simulator Version: 16.2.0.p001
* EVM Order Number: NA
* EVM Users Guide: NA
* Datasheet: SLVSEU9A –NOVEMBER 2018–REVISED JANUARY 2019
* Topologies Supported: Buck, Boost, Buck Boost
*
* Model Version: Final 1.00
*
*****************************************************************************
*
* Updates:
*
* Final 1.00
* Release to Web.
*
*****************************************************************************
*
* Model Usage Notes:
*
* 1. The following features have been modeled
*      a. Switching Characteristics
*      b. FPWM and PFM Mode
*      c. Minimum ON time
*      d. Soft Start
*      e. Auto Mode transitions
*      f. Current Limit
*      g. Power Good
*      h. Input Voltage Protection(IVP)
*      i. Output Voltage Protection(OVP)
*      j. Input Voltage and Enable UVLO
* 2. The following features have not been modeled
*      a. Temperature effects 
*      b. Quiescent curents
* 3. Ground pins have been tied to 0V internally.  
*    Therefore, this model cannot be used for inverting topologies.
*
*****************************************************************************
.SUBCKT TPS63802_TRANS AGND EN FB GND L1 L2 MODE PG VIN VOUT  
X_U1         NO_FAULT NO_FAULT SDWN AND2_BASIC_GEN PARAMS: VDD=1 VSS=0
+  VTHRESH=500E-3
C_U_EA_C2         COMP 0  150f  
D_U_EA_D2         COMP U_EA_N05897 D_D1 
R_U_EA_R2         0 U_EA_VREF_FEED  1k  
E_U_EA_ABM1         U_EA_VREF_INT 0 VALUE { MIN(V(U_EA_SS), V(U_EA_BANDGAP))   
+  }
G_U_EA_ABMII1         U_EA_N00231 U_EA_SS VALUE { If(V(SDWN_B) < 0.5, 1.9u,0)  
+   }
V_U_EA_V6         U_EA_N76869 0 20m
E_U_EA_ABM3         U_EA_N05897 0 VALUE { IF(V(BUCK)>0.5, 
+ {((1.911-1.175)/(0.5))*V(U_EA_VREF)+1.175}, 
+ {((2.176-1.175)/(0.5))*V(U_EA_VREF)+1.175})    }
X_U_EA_U1         SKIPPAUSE SKIPPAUSE_BAR INV_BASIC_GEN PARAMS: VDD=1 VSS=0
+  VTHRESH=500E-3
D_U_EA_D3         U_EA_N43040 COMP D_D1 
C_U_EA_C1         U_EA_SS 0  {1.9u*100u/0.5} IC=0
V_U_EA_V3         U_EA_N16768328 0 0.075
E_U_EA_ABM16         U_EA_SSEND 0 VALUE { IF(V(U_EA_SS) > 0.5, 1, 0)    }
V_U_EA_V5         U_EA_N76861 0 {1.175+20m}
X_U_EA_U3         COMP U_EA_N76861 U_EA_N76869 U_EA_N76909 COMPHYS_BASIC_GEN
+  PARAMS: VDD=1 VSS=0 VTHRESH=0.5
C_U_EA_C4         U_EA_VREF_FEED U_EA_N16768288  {0.15n}  
X_U_EA_U5         FPWM PFM_MODE INV_BASIC_GEN PARAMS: VDD=1 VSS=0
+  VTHRESH=500E-3
R_U_EA_R1         COMP U_EA_N04642  350k TC=0,0 
E_U_EA_E1         U_EA_VREF U_EA_N16768276 U_EA_VREF_INT 0 1
V_U_EA_V1         U_EA_N00231 0 0.6
C_U_EA_C3         U_EA_N04642 0  20p  
D_U_EA_D1         U_EA_SS U_EA_N00231 D_D1 
D_U_EA_D64         0 U_EA_VREF_FEED D_D1 
X_U_EA_U8         U_EA_N114925 SKIPPAUSE BUF_DELAY_BASIC_GEN PARAMS: VDD=1
+  VSS=0 VTHRESH=0.5 DELAY=20n
R_U_EA_Rea         COMP 0  500Meg TC=0,0 
X_U_EA_U6         PFM_MODE U_EA_SKIPPAUSE_PRE U_EA_N114925 AND2_BASIC_GEN
+  PARAMS: VDD=1 VSS=0 VTHRESH=500E-3
X_U_EA_U9         U_EA_SSEND PG_LOGIC_OUT MODE_HIGH FPWM AND3_BASIC_GEN PARAMS:
+  VDD=1 VSS=0 VTHRESH=500E-3
D_U_EA_D65         U_EA_VREF_FEED U_EA_N16768328 D_D1 
G_U_EA_ABM2I1         U_EA_VREF COMP VALUE { LIMIT( (V(U_EA_VREF)-V(FB))* 20u,
+  1.5u, -1.5u)    }
X_U_EA_S1    SDWN_B 0 U_EA_SS 0 EA_SS_mod_U_EA_S1 
E_U_EA_ABM5         U_EA_N16768276 0 VALUE { IF(V(U_EA_SS) >0.45
+  ,V(U_EA_VREF_FEED),0)    }
X_U_EA_U4         U_EA_N76909 U_EA_SKIPPAUSE_PRE INV_BASIC_GEN PARAMS: VDD=1
+  VSS=0 VTHRESH=500E-3
V_U_EA_V2         U_EA_BANDGAP 0 0.5
E_U_EA_ABM17         U_EA_N43040 0 VALUE { If (V(FPWM) > 0.5, 594m, 1.12)    }
E_U_EA_E2         U_EA_N16768288 0 VIN 0 0.5
E_U_GMI_ABM1         U_GMI_CL_LIMIT 0 VALUE { IF(V(BUCK) > 0.5, 3.5, 4.5)    }
C_U_GMI_C147         GND U_GMI_N16771084  1.443n IC=0 
X_U_GMI_U831         PWM_RESET U_GMI_N16850824 one_shot PARAMS:  T=20
X_U_GMI_U833         INDUCTOR_COMP_OUT U_GMI_BLNCK U_GMI_XX AND2_BASIC_GEN
+  PARAMS: VDD=1 VSS=0 VTHRESH=500E-3
D_U_GMI_D11         U_GMI_N16771134 U_GMI_N16771084 D_D1 
R_U_GMI_R3         U_GMI_N16771134 U_GMI_N16771084  40 TC=0,0 
E_U_GMI_ABM152         U_GMI_ISWF 0 VALUE { {IF(V(U_GMI_BLNCK) > 0.5,  
+ V(ISENSE), -2)}   }
X_U_GMI_U3         ISENSE U_GMI_ICTRL INDUCTOR_COMP_OUT COMP_BASIC_GEN PARAMS:
+  VDD=1 VSS=0 VTHRESH=0.5
R_U_GMI_R255         U_GMI_N16949901 U_GMI_BLNCK  20  
E_U_GMI_ABM3         U_GMI_N16949901 0 VALUE { If(V(BUCK) >
+  0.5,V(PRE_HDRV1),V(PRE_LDRV2))    }
D_U_GMI_D58         U_GMI_BLNCK U_GMI_N16949901 D_D1 
X_U_GMI_U1         U_GMI_ISWF U_GMI_ICTRL PWM_RESET COMP_BASIC_GEN PARAMS:
+  VDD=1 VSS=0 VTHRESH=0.5
X_U_GMI_U841         B1 U_GMI_N16985147 INV_BASIC_GEN PARAMS: VDD=1 VSS=0
+  VTHRESH=500E-3
E_U_GMI_ABM153         U_GMI_ICTRL 0 VALUE { LIMIT(((V(COMP)-0.987) * 3.7878),
+  -1, V(U_GMI_CL_LIMIT))    }
C_U_GMI_C146         GND U_GMI_BLNCK  1.443n IC=0 
X_U_GMI_U840         BUCK U_GMI_N16985147 U_GMI_BUCK_RESET AND2_BASIC_GEN
+  PARAMS: VDD=1 VSS=0 VTHRESH=500E-3
X_U_GMI_U824         PWM_INT U_GMI_N16771188 INV_DELAY_BASIC_GEN PARAMS: VDD=1
+  VSS=0 VTHRESH=0.5 DELAY=10n
X_U_GMI_U702         PWM_RESET U_GMI_N16850824 PWM_RESET_20N_SHOT OR2_BASIC_GEN
+  PARAMS: VDD=1 VSS=0 VTHRESH=500E-3
X_U_GMI_U2         PWM_START PWM_RESET_20N_SHOT PWM_INT N16829483
+  srlatchrhp_basic_gen PARAMS: VDD=1 VSS=0 VTHRESH=0.5
X_U_GMI_U825         U_GMI_N16771188 PWM_INT U_GMI_N16771134 AND2_BASIC_GEN
+  PARAMS: VDD=1 VSS=0 VTHRESH=500E-3
X_U_GMI_U842         U_GMI_BUCK_RESET PWM_INT U_GMI_N16771084 PWM OR3_BASIC_GEN
+  PARAMS: VDD=1 VSS=0 VTHRESH=500E-3
X_U_PG_U6         VIN U_PG_N16768007 U_PG_N16768069 IVP COMPHYS_BASIC_GEN
+  PARAMS: VDD=1 VSS=0 VTHRESH=0.5
X_U_PG_U9         U_PG_PG_FB U_PG_N16773421 INV_BASIC_GEN PARAMS: VDD=1 VSS=0
+  VTHRESH=500E-3
X_U_PG_S1    U_PG_PGBAR_DELAY GND PG GND PG_OVP_U_PG_S1 
V_U_PG_V6         U_PG_N16768069 GND 150m
X_U_PG_U14         U_PG_N16773421 U_PG_N16813847 asymmetric_delay PARAMS:
+  RISING_EDGE_DELAY=100n VTHRESH=0.5 FALLING_EDGE_DELAY=40u VDD=1 VSS=0
V_U_PG_V3         U_PG_N00552 GND {0.05*0.5}
X_U_PG_U3         VOUT U_PG_N00172 U_PG_N16765851 OVP COMPHYS_BASIC_GEN PARAMS:
+  VDD=1 VSS=0 VTHRESH=0.5
X_U_PG_U2         FB U_PG_N00464 U_PG_N00552 U_PG_PG_FB COMPHYS_BASIC_GEN
+  PARAMS: VDD=1 VSS=0 VTHRESH=0.5
V_U_PG_V1         U_PG_N00172 GND 5.7
X_U_PG_U10         U_PG_N16813847 OVP_VOUT_DISCH IVP_ACT U_PG_N16815252
+  OR3_BASIC_GEN PARAMS: VDD=1 VSS=0 VTHRESH=500E-3
V_U_PG_V5         U_PG_N16768007 GND 5.7
X_U_PG_U11         U_PG_PGBAR_DELAY PG_LOGIC_OUT INV_BASIC_GEN PARAMS: VDD=1
+  VSS=0 VTHRESH=500E-3
X_U_PG_U13         U_PG_N16815252 VIN_OK U_PG_PGBAR_DELAY AND2_BASIC_GEN
+  PARAMS: VDD=1 VSS=0 VTHRESH=500E-3
V_U_PG_V4         U_PG_N16765851 GND 150m
V_U_PG_V2         U_PG_N00464 GND {0.95*0.5}
X_U_OFFtimer_U779         U_OFFtimer_BB_EXIT_BUCK_SHOT U_OFFtimer_N16909203
+  U_OFFtimer_N16909110 U_OFFtimer_N18102460 PWM_TRIGGER OR4_BASIC_GEN PARAMS:
+  VDD=1 VSS=0 VTHRESH=500E-3
X_U_OFFtimer_U866         IVP U_OFFtimer_ZCDB IVP_ACT AND2_BASIC_GEN PARAMS:
+  VDD=1 VSS=0 VTHRESH=500E-3
X_U_OFFtimer_S34    U_OFFtimer_N16909053 GND U_OFFtimer_TONBY2 GND
+  OFF_Timer_mod_U_OFFtimer_S34 
R_U_OFFtimer_R261         DISCH3_SOME U_OFFtimer_N16910216  12  
X_U_OFFtimer_U18         U_OFFtimer_N16907967 U_OFFtimer_QA
+  U_OFFtimer_N16909153 XNOR2_BASIC_GEN PARAMS: VDD=1 VSS=0 VTHRESH=500E-3
X_U_OFFtimer_U777         U_OFFtimer_N18027008 N17677210 SKIPPAUSE_BAR
+  U_OFFtimer_BLOCK_ON SRLATCHSHP_BASIC_NEW PARAMS: IC=1 THRESH=0.5 VDD=1 VSS=0
V_U_OFFtimer_V19         U_OFFtimer_N18741338 GND 1Vdc
X_U_OFFtimer_U692         U_OFFtimer_DISCH6_SOME U_OFFtimer_PWM_RESET_SHOT
+  U_OFFtimer_DISCH4_SOME U_OFFtimer_N16908876 OR3_BASIC_GEN PARAMS: VDD=1 VSS=0
+  VTHRESH=500E-3
V_U_OFFtimer_V15         U_OFFtimer_N16907724 GND 10Vdc
X_U_OFFtimer_U45         PWM U_OFFtimer_N16908893 BB_ENTRY_BOOST AND2_BASIC_GEN
+  PARAMS: VDD=1 VSS=0 VTHRESH=500E-3
X_U_OFFtimer_U660         BB_MODE U_OFFtimer_BOON PWM_RESET
+  U_OFFtimer_N16907504 AND3_BASIC_GEN PARAMS: VDD=1 VSS=0 VTHRESH=500E-3
D_U_OFFtimer_D60         U_OFFtimer_N16910657 U_OFFtimer_N16910665 D_D1 
C_U_OFFtimer_C1782         GND U_OFFtimer_TOFF_50NS  {100u*50n/1}  
V_U_OFFtimer_V9         U_OFFtimer_N16907349 GND 1
X_U_OFFtimer_U684         U_OFFtimer_TIMER_EXPIRES_INT5 U_OFFtimer_N16907358
+  U_OFFtimer_DISCH5_SOME N16907366 srlatchrhp_basic_gen PARAMS: VDD=1 VSS=0
+  VTHRESH=0.5
X_U_OFFtimer_U772         IVP U_OFFtimer_N19422688 INV_BASIC_GEN PARAMS: VDD=1
+  VSS=0 VTHRESH=500E-3
X_U_OFFtimer_U677         U_OFFtimer_TONBY3 U_OFFtimer_N16910385
+  U_OFFtimer_N16910371 COMP_BASIC_GEN PARAMS: VDD=1 VSS=0 VTHRESH=0.5
X_U_OFFtimer_U681         U_OFFtimer_TONBY4 U_OFFtimer_N16907460
+  U_OFFtimer_N16907448 COMP_BASIC_GEN PARAMS: VDD=1 VSS=0 VTHRESH=0.5
X_U_OFFtimer_U691         U_OFFtimer_SET_BB_EXIT_BUCK U_OFFtimer_N16910125
+  U_OFFtimer_N17517103 N16910115 srlatchrhp_basic_gen PARAMS: VDD=1 VSS=0
+  VTHRESH=0.5
X_U_OFFtimer_U674         U_OFFtimer_N18427252 BB_MODE TONMAX N18432614
+  srlatchrhp_basic_gen PARAMS: VDD=1 VSS=0 VTHRESH=0.5
X_U_OFFtimer_U675         PWM U_OFFtimer_PWM_BAR INV_DELAY_BASIC_GEN PARAMS:
+  VDD=1 VSS=0 VTHRESH=0.5 DELAY=2n
V_U_OFFtimer_V1         U_OFFtimer_1VDC GND 1
G_U_OFFtimer_ABMII1         U_OFFtimer_N16907229 U_OFFtimer_TONBY2 VALUE {
+  MAX(0, {V(U_OFFtimer_N16907243)/1.25e3})    }
X_U_OFFtimer_U833         ZCD ZCD ZCD PWM U_OFFtimer_N18242117 AND4_BASIC_GEN
+  PARAMS: VDD=1 VSS=0 VTHRESH=500E-3
E_U_OFFtimer_ABM154         U_OFFtimer_N16910385 0 VALUE { MAX(V(VIN)*0.2,1m)  
+   }
X_U_OFFtimer_S37    U_OFFtimer_N16907236 GND U_OFFtimer_TONBY4 GND
+  OFF_Timer_mod_U_OFFtimer_S37 
X_U_OFFtimer_U694         U_OFFtimer_N16910382 U_OFFtimer_BOCOM
+  BUF_DELAY_BASIC_GEN PARAMS: VDD=1 VSS=0 VTHRESH=0.5 DELAY=10n
X_U_OFFtimer_U658         U_OFFtimer_N16910232 U_OFFtimer_BOON
+  BUF_DELAY_BASIC_GEN PARAMS: VDD=1 VSS=0 VTHRESH=0.5 DELAY=10n
X_U_OFFtimer_U687         U_OFFtimer_N18769058 U_OFFtimer_N19119380
+  U_OFFtimer_N18756756 N18787013 srlatchrhp_basic_gen PARAMS: VDD=1 VSS=0
+  VTHRESH=0.5
V_U_OFFtimer_V8         U_OFFtimer_N16907313 GND 1
X_U_OFFtimer_S35    U_OFFtimer_N16910239 GND U_OFFtimer_TONBY3 GND
+  OFF_Timer_mod_U_OFFtimer_S35 
X_U_OFFtimer_U690         U_OFFtimer_N16908876 BB_MODE U_OFFtimer_N16910034
+  AND2_BASIC_GEN PARAMS: VDD=1 VSS=0 VTHRESH=500E-3
X_U_OFFtimer_U781         ZCD U_OFFtimer_ZCDB INV_BASIC_GEN PARAMS: VDD=1 VSS=0
+  VTHRESH=500E-3
X_U_OFFtimer_U857         PWM_RESET_20N_SHOT U_OFFtimer_BUCK_B SKIPPAUSE
+  U_OFFtimer_N19286930 AND3_BASIC_GEN PARAMS: VDD=1 VSS=0 VTHRESH=500E-3
X_U_OFFtimer_U737         U_OFFtimer_N16911021 U_OFFtimer_LATCH_OUT_DEL
+  BUF_DELAY_BASIC_GEN PARAMS: VDD=1 VSS=0 VTHRESH=0.5 DELAY=10n
X_U_OFFtimer_U35         BB_LDRV2 U_OFFtimer_COM_PHASE U_OFFtimer_N16910818
+  OR2_BASIC_GEN PARAMS: VDD=1 VSS=0 VTHRESH=500E-3
X_U_OFFtimer_U837         U_OFFtimer_N18400174 VI_GR_VO_NEW
+  U_OFFtimer_N18401083 OR2_BASIC_GEN PARAMS: VDD=1 VSS=0 VTHRESH=500E-3
X_U_OFFtimer_U659         U_OFFtimer_N16910256 U_OFFtimer_BUOF
+  BUF_DELAY_BASIC_GEN PARAMS: VDD=1 VSS=0 VTHRESH=0.5 DELAY=10n
G_U_OFFtimer_ABM2I1         U_OFFtimer_N16907724 U_OFFtimer_TONBY3 VALUE {
+  IF(V(U_OFFtimer_N16910455) < 0.5, {(V(U_OFFtimer_N16910235)/2.5e3)+0.2m}, 
+ {V(U_OFFtimer_N16910235)/100e6} )    }
X_U_OFFtimer_S43    U_OFFtimer_N16909604 GND U_OFFtimer_TONBY6 GND
+  OFF_Timer_mod_U_OFFtimer_S43 
E_U_OFFtimer_E20         U_OFFtimer_N16907243 GND L1 GND 1
X_U_OFFtimer_S42    U_OFFtimer_BUOF GND U_OFFtimer_N16907399 U_OFFtimer_TONBY4
+  OFF_Timer_mod_U_OFFtimer_S42 
X_U_OFFtimer_U41         PWM PWM U_OFFtimer_N16910455 OR2_BASIC_GEN PARAMS:
+  VDD=1 VSS=0 VTHRESH=500E-3
E_U_OFFtimer_ABM155         U_OFFtimer_N16907460 0 VALUE { MAX(V(VIN)*0.2,1m)  
+   }
R_U_OFFtimer_R267         DISCH2_SOME U_OFFtimer_N16908693  10  
X_U_OFFtimer_U672         U_OFFtimer_TONBY2 U_OFFtimer_N16910548 B1
+  COMP_BASIC_GEN PARAMS: VDD=1 VSS=0 VTHRESH=0.5
I_U_OFFtimer_I3         GND U_OFFtimer_TONBY4 DC 0.2m  
X_U_OFFtimer_U859         U_OFFtimer_N19329286 U_OFFtimer_PRE_LDRV1_5NS
+  one_shot PARAMS:  T=5  
X_U_OFFtimer_U682         U_OFFtimer_N16907448 U_OFFtimer_N16907388
+  U_OFFtimer_DISCH4_SOME N16907473 srlatchrhp_basic_gen PARAMS: VDD=1 VSS=0
+  VTHRESH=0.5
X_U_OFFtimer_U865         OVP U_OFFtimer_ZCDB OVP_VOUT_DISCH AND2_BASIC_GEN
+  PARAMS: VDD=1 VSS=0 VTHRESH=500E-3
C_U_OFFtimer_C184         GND U_OFFtimer_N16907358  1.443n IC=0 
C_U_OFFtimer_C185         GND U_OFFtimer_N16907529  1.443n IC=0 
E_U_OFFtimer_ABM16         U_OFFtimer_N16909110 0 VALUE { If
+  (V(U_OFFtimer_N16909108) > 0.5, V(DISCH3_SOME), 0)    }
I_U_OFFtimer_I5         GND U_OFFtimer_TONBY6 DC 0.2m  
C_U_OFFtimer_C192         U_OFFtimer_N16908795 GND  1.443n IC=0 
X_U_OFFtimer_U689         U_OFFtimer_N16907604 U_OFFtimer_N16907529
+  U_OFFtimer_DISCH6_SOME N16907623 srlatchrhp_basic_gen PARAMS: VDD=1 VSS=0
+  VTHRESH=0.5
C_U_OFFtimer_C174         GND U_OFFtimer_N16909150  1.443n  
X_U_OFFtimer_U683         U_OFFtimer_TSBY5 U_OFFtimer_N16907313
+  U_OFFtimer_TIMER_EXPIRES_INT5 COMP_BASIC_GEN PARAMS: VDD=1 VSS=0 VTHRESH=0.5
X_U_OFFtimer_U663         U_OFFtimer_SET_BB_ENTRY_BOOST U_OFFtimer_N16910101
+  U_OFFtimer_N16908893 N16907607 srlatchrhp_basic_gen PARAMS: VDD=1 VSS=0
+  VTHRESH=0.5
R_U_OFFtimer_R256         PWM_TRIGGER U_OFFtimer_N16909150  5  
X_U_OFFtimer_U852         U_OFFtimer_ZCDB U_OFFtimer_BUCK_50NS_OFF
+  U_OFFtimer_N17756284 U_OFFtimer_N17757183 OR3_BASIC_GEN PARAMS: VDD=1 VSS=0
+  VTHRESH=500E-3
X_U_OFFtimer_U42         U_OFFtimer_BOCOM U_OFFtimer_N16907157
+  U_OFFtimer_N16907227 AND2_BASIC_GEN PARAMS: VDD=1 VSS=0 VTHRESH=500E-3
X_U_OFFtimer_U853         U_OFFtimer_DISCH5_SOME U_OFFtimer_BB_RST
+  U_OFFtimer_N16907775 OR2_BASIC_GEN PARAMS: VDD=1 VSS=0 VTHRESH=500E-3
V_U_OFFtimer_V20         U_OFFtimer_N18753455 GND 5Vdc
X_U_OFFtimer_U838         BB_REGION U_OFFtimer_N18242113 U_OFFtimer_N19365948
+  AND2_BASIC_GEN PARAMS: VDD=1 VSS=0 VTHRESH=500E-3
C_U_OFFtimer_C182         U_OFFtimer_TONBY4 GND  1n IC=0 
X_U_OFFtimer_U847         U_OFFtimer_N18795888 U_OFFtimer_BUCK_50NS_OFF
+  one_shot PARAMS:  T=10  
X_U_OFFtimer_U861         PFM_MODE PRE_LDRV1 U_OFFtimer_N19329286
+  AND2_BASIC_GEN PARAMS: VDD=1 VSS=0 VTHRESH=500E-3
X_U_OFFtimer_U754         U_OFFtimer_N16907227 U_OFFtimer_N17517103
+  U_OFFtimer_N17517103 BB_EXIT_BUCK AND3_BASIC_GEN PARAMS: VDD=1 VSS=0
+  VTHRESH=500E-3
D_U_OFFtimer_D12         U_OFFtimer_N18242113 U_OFFtimer_N18242117 D_D1 
X_U_OFFtimer_U761         OVP_VOUT_DISCH U_OFFtimer_N19571072 one_shot PARAMS: 
+  T=20  
X_U_OFFtimer_U762         DISCH2_SOME U_OFFtimer_BUCK_B SDWN_B
+  U_OFFtimer_N17748054 OR3_BASIC_GEN PARAMS: VDD=1 VSS=0 VTHRESH=500E-3
X_U_OFFtimer_U21         U_OFFtimer_QB_BAR U_OFFtimer_QA U_OFFtimer_N16910355
+  AND2_BASIC_GEN PARAMS: VDD=1 VSS=0 VTHRESH=500E-3
X_U_OFFtimer_U856         U_OFFtimer_PWM_RESET_SHOT U_OFFtimer_N19165400
+  U_OFFtimer_BB_RST U_OFFtimer_DISCH6_SOME U_OFFtimer_N16909604 OR4_BASIC_GEN
+  PARAMS: VDD=1 VSS=0 VTHRESH=500E-3
X_U_OFFtimer_U673         B1 U_OFFtimer_PWM_BAR DISCH1_SOME N16910561
+  srlatchrhp_basic_gen PARAMS: VDD=1 VSS=0 VTHRESH=0.5
X_U_OFFtimer_U735         U_OFFtimer_N16910625 BB_MODE INDUCTOR_COMP_OUT
+  U_OFFtimer_N19372792 AND3_BASIC_GEN PARAMS: VDD=1 VSS=0 VTHRESH=500E-3
X_U_OFFtimer_U734         U_OFFtimer_LATCH_OUT_DEL BOOST U_OFFtimer_PWM_BAR
+  U_OFFtimer_SET_BB_ENTRY_BOOST AND3_BASIC_GEN PARAMS: VDD=1 VSS=0
+  VTHRESH=500E-3
X_U_OFFtimer_U854         U_OFFtimer_BUCK_B U_OFFtimer_ZCDB
+  U_OFFtimer_N19119380 OR2_BASIC_GEN PARAMS: VDD=1 VSS=0 VTHRESH=500E-3
E_U_OFFtimer_E17         U_OFFtimer_N16910235 GND L2 GND 1
X_U_OFFtimer_U24         U_OFFtimer_N16907178 BB_MODE U_OFFtimer_COM_PHASE
+  AND2_BASIC_GEN PARAMS: VDD=1 VSS=0 VTHRESH=500E-3
R_U_OFFtimer_R269         U_OFFtimer_N16997694 U_OFFtimer_N16908795  45  
X_U_OFFtimer_U773         OVP U_OFFtimer_N19391435 INV_BASIC_GEN PARAMS: VDD=1
+  VSS=0 VTHRESH=500E-3
X_U_OFFtimer_U678         U_OFFtimer_N16910371 PWM_INT DISCH3_SOME N16910398
+  srlatchrhp_basic_gen PARAMS: VDD=1 VSS=0 VTHRESH=0.5
X_U_OFFtimer_U653         BB_LDRV2 U_OFFtimer_BOON_BAR INV_BASIC_GEN PARAMS:
+  VDD=1 VSS=0 VTHRESH=500E-3
X_U_OFFtimer_U23         U_OFFtimer_QB U_OFFtimer_QA U_OFFtimer_N16910382
+  AND2_BASIC_GEN PARAMS: VDD=1 VSS=0 VTHRESH=500E-3
I_U_OFFtimer_I6         GND U_OFFtimer_N16922544 DC 0.2m  
R_U_OFFtimer_R2591         U_OFFtimer_N18242117 U_OFFtimer_N18242113  1.3k  
X_U_OFFtimer_U759         BB_EXIT_BUCK U_OFFtimer_BB_EXIT_BUCK_SHOT one_shot
+  PARAMS:  T=20  
X_U_OFFtimer_U656         U_OFFtimer_N16910847 BB_LDRV2 BB_HDRV2 N16910850
+  srlatchrhp_basic_gen PARAMS: VDD=1 VSS=0 VTHRESH=0.5
C_U_OFFtimer_C190         U_OFFtimer_N16908693 GND  1.443n IC=0 
X_U_OFFtimer_U851         U_OFFtimer_ZCDB U_OFFtimer_BUCK_50NS_OFF
+  U_OFFtimer_N17748054 U_OFFtimer_N16909053 OR3_BASIC_GEN PARAMS: VDD=1 VSS=0
+  VTHRESH=500E-3
X_U_OFFtimer_U667         U_OFFtimer_QA_BAR U_OFFtimer_N16908368
+  BUF_DELAY_BASIC_GEN PARAMS: VDD=1 VSS=0 VTHRESH=0.5 DELAY=20n
X_U_OFFtimer_U751         U_OFFtimer_BOON_TERMINATION BB_MODE
+  U_OFFtimer_N18125644 AND2_BASIC_GEN PARAMS: VDD=1 VSS=0 VTHRESH=500E-3
V_U_OFFtimer_V10         U_OFFtimer_N16907383 GND 10
C_U_OFFtimer_C1781         U_OFFtimer_N18242113 GND  1.443n IC=0 
X_U_OFFtimer_S44    PWM GND U_OFFtimer_N16907383 U_OFFtimer_TONBY6
+  OFF_Timer_mod_U_OFFtimer_S44 
V_U_OFFtimer_V5         U_OFFtimer_N16922570 GND 10
E_U_OFFtimer_E14         U_OFFtimer_N16910548 GND VOUT GND 0.2
X_U_OFFtimer_S31    PWM GND U_OFFtimer_N16922570 U_OFFtimer_N16922544
+  OFF_Timer_mod_U_OFFtimer_S31 
X_U_OFFtimer_U661         U_OFFtimer_PWM_RESET_SHOT U_OFFtimer_DISCH5_SOME
+  U_OFFtimer_DISCH5_SOME U_OFFtimer_DISCH4_SOME TIMER_EXPIRES OR4_BASIC_GEN
+  PARAMS: VDD=1 VSS=0 VTHRESH=500E-3
X_U_OFFtimer_U19         U_OFFtimer_N16908368 U_OFFtimer_1VDC
+  U_OFFtimer_N16909090 XNOR2_BASIC_GEN PARAMS: VDD=1 VSS=0 VTHRESH=500E-3
X_U_OFFtimer_U771         U_OFFtimer_N18027008 U_OFFtimer_ZCD_PFM INV_BASIC_GEN
+  PARAMS: VDD=1 VSS=0 VTHRESH=500E-3
X_U_OFFtimer_U43         U_OFFtimer_BOCOM U_OFFtimer_N16907157
+  INV_DELAY_BASIC_GEN PARAMS: VDD=1 VSS=0 VTHRESH=0.5 DELAY=10n
X_U_OFFtimer_U868         U_OFFtimer_N18125644 U_OFFtimer_N19571072
+  U_OFFtimer_N19549984 U_OFFtimer_N18102460 OR3_BASIC_GEN PARAMS: VDD=1 VSS=0
+  VTHRESH=500E-3
X_U_OFFtimer_U775         U_OFFtimer_ZCDB BB_MODE_B U_OFFtimer_BB_RST
+  OR2_BASIC_GEN PARAMS: VDD=1 VSS=0 VTHRESH=500E-3
X_U_OFFtimer_U9         U_OFFtimer_QA U_OFFtimer_QA_BAR TIMER_EXPIRES
+  U_OFFtimer_N16909090 U_OFFtimer_BB_RST DFF_R PARAMS:  VDD=1 VSS=0 VTHRESH=0.5
G_U_OFFtimer_ABMII3         U_OFFtimer_N18753455 U_OFFtimer_TOFF_50NS VALUE {
+  IF(V(U_OFFtimer_N18756756) > 0.5, 100u, 0)    }
X_U_OFFtimer_S33    U_OFFtimer_N17757183 GND U_OFFtimer_TSBY2 GND
+  OFF_Timer_mod_U_OFFtimer_S33 
C_U_OFFtimer_C179         U_OFFtimer_TONBY3 GND  1n IC=0 
X_U_OFFtimer_U862         U_OFFtimer_N19365948 U_OFFtimer_N18427252
+  BUF_DELAY_BASIC_GEN PARAMS: VDD=1 VSS=0 VTHRESH=0.5 DELAY=20n
X_U_OFFtimer_U699         BOOST_ENTRY BOOST U_OFFtimer_N16909108 OR2_BASIC_GEN
+  PARAMS: VDD=1 VSS=0 VTHRESH=500E-3
X_U_OFFtimer_U12         U_OFFtimer_QB U_OFFtimer_QB_BAR TIMER_EXPIRES
+  U_OFFtimer_N16909153 U_OFFtimer_BB_RST DFF_R PARAMS:  VDD=1 VSS=0 VTHRESH=0.5
X_U_OFFtimer_U764         DISCH2_SOME U_OFFtimer_BUCK_B SDWN_B
+  U_OFFtimer_N17756284 OR3_BASIC_GEN PARAMS: VDD=1 VSS=0 VTHRESH=500E-3
X_U_OFFtimer_U845         ZCD PWM_RESET_20N_SHOT U_OFFtimer_N18769058
+  AND2_BASIC_GEN PARAMS: VDD=1 VSS=0 VTHRESH=500E-3
X_U_OFFtimer_U686         U_OFFtimer_TOFF_50NS U_OFFtimer_N18741338
+  U_OFFtimer_N18795888 COMP_BASIC_GEN PARAMS: VDD=1 VSS=0 VTHRESH=0.5
C_U_OFFtimer_C178         GND U_OFFtimer_N16910657  1.443n IC=0 
X_U_OFFtimer_S32    DISCH1_SOME GND U_OFFtimer_N16922544 U_OFFtimer_TSBY2
+  OFF_Timer_mod_U_OFFtimer_S32 
X_U_OFFtimer_U28         U_OFFtimer_N16910771 U_OFFtimer_N16910818
+  U_OFFtimer_N16910876 AND2_BASIC_GEN PARAMS: VDD=1 VSS=0 VTHRESH=500E-3
D_U_OFFtimer_D61         U_OFFtimer_TOFF_50NS U_OFFtimer_N18753455 D_D1 
X_U_OFFtimer_U36         BB_LDRV1 U_OFFtimer_COM_PHASE U_OFFtimer_N16910889
+  OR2_BASIC_GEN PARAMS: VDD=1 VSS=0 VTHRESH=500E-3
X_U_OFFtimer_U30         U_OFFtimer_N16907504 U_OFFtimer_N16907535
+  INV_DELAY_BASIC_GEN PARAMS: VDD=1 VSS=0 VTHRESH=0.5 DELAY=20N
R_U_OFFtimer_R255         U_OFFtimer_BOCOM U_OFFtimer_N16910625  20  
X_U_OFFtimer_U693         U_OFFtimer_N16910355 U_OFFtimer_BUCOM
+  BUF_DELAY_BASIC_GEN PARAMS: VDD=1 VSS=0 VTHRESH=0.5 DELAY=10n
X_U_OFFtimer_U652         U_OFFtimer_BOON BB_LDRV2 BUF_BASIC_GEN PARAMS: VDD=1
+  VSS=0 VTHRESH=0.5
X_U_OFFtimer_U836         BB_MODE VI_GR_VO_NEW VI_GR_VO_NEW
+  U_OFFtimer_N16910101 OR3_BASIC_GEN PARAMS: VDD=1 VSS=0 VTHRESH=500E-3
E_U_OFFtimer_ABM15         U_OFFtimer_N16909203 0 VALUE { If (V(BUCK) > 0.5,
+  V(U_OFFtimer_N16909355), 0)    }
R_U_OFFtimer_R259         U_OFFtimer_N16910665 U_OFFtimer_N16910657  245  
X_U_OFFtimer_U40         U_OFFtimer_BOON U_OFFtimer_N16909242
+  INV_DELAY_BASIC_GEN PARAMS: VDD=1 VSS=0 VTHRESH=0.5 DELAY=10n
V_U_OFFtimer_V16         U_OFFtimer_N16907229 GND 10Vdc
X_U_OFFtimer_U664         PWM_INT U_OFFtimer_N18401083 U_OFFtimer_N16911021
+  N16910725 srlatchrhp_basic_gen PARAMS: VDD=1 VSS=0 VTHRESH=0.5
D_U_OFFtimer_D58         U_OFFtimer_N16910625 U_OFFtimer_BOCOM D_D1 
I_U_OFFtimer_I4         GND U_OFFtimer_TSBY5 DC 0.2m  
V_U_OFFtimer_V4         U_OFFtimer_VDC GND 5.8
X_U_OFFtimer_U765         DISCH3_SOME U_OFFtimer_N17111743 U_OFFtimer_ZCDB
+  U_OFFtimer_N16910239 OR3_BASIC_GEN PARAMS: VDD=1 VSS=0 VTHRESH=500E-3
X_U_OFFtimer_U855         U_OFFtimer_BOON U_OFFtimer_N19165400 INV_BASIC_GEN
+  PARAMS: VDD=1 VSS=0 VTHRESH=500E-3
X_U_OFFtimer_U37         U_OFFtimer_BOON U_OFFtimer_N16909242
+  U_OFFtimer_BOON_TERMINATION AND2_BASIC_GEN PARAMS: VDD=1 VSS=0 VTHRESH=500E-3
X_U_OFFtimer_U668         U_OFFtimer_TSBY2 U_OFFtimer_N16910211
+  U_OFFtimer_TIMER_EXPIRES_INT1 COMP_BASIC_GEN PARAMS: VDD=1 VSS=0 VTHRESH=0.5
C_U_OFFtimer_C183         U_OFFtimer_TSBY5 GND  1n IC=0 
X_U_OFFtimer_U651         U_OFFtimer_QB_BAR U_OFFtimer_N16907967
+  BUF_DELAY_BASIC_GEN PARAMS: VDD=1 VSS=0 VTHRESH=0.5 DELAY=20n
X_U_OFFtimer_U665         U_OFFtimer_N16909150 PWM_START BUF_BASIC_GEN PARAMS:
+  VDD=1 VSS=0 VTHRESH=0.5
E_U_OFFtimer_E19         U_OFFtimer_N16907399 GND VOUT GND 1
X_U_OFFtimer_S39    U_OFFtimer_N18756756 GND U_OFFtimer_TOFF_50NS GND
+  OFF_Timer_mod_U_OFFtimer_S39 
E_U_OFFtimer_ABM153         U_OFFtimer_N18400174 0 VALUE { IF(V(BB_REGION) <
+  0.5, 1, V(U_OFFtimer_N16908795))    }
X_U_OFFtimer_U662         U_OFFtimer_N16910657 BOOST BB_EXIT_BOOST N16910663
+  srlatchrhp_basic_gen PARAMS: VDD=1 VSS=0 VTHRESH=0.5
X_U_OFFtimer_U778         U_OFFtimer_PFM_MODE_ACT N17648959 SKIPPAUSE_BAR
+  U_OFFtimer_N19290411 SRLATCHSHP_BASIC_NEW PARAMS: IC=0 THRESH=0.5 VDD=1 VSS=0
C_U_OFFtimer_C180         GND U_OFFtimer_N16910216  1.443n IC=0 
X_U_OFFtimer_S40    U_OFFtimer_TIMER_BB_START GND U_OFFtimer_N16907277
+  U_OFFtimer_TSBY5 OFF_Timer_mod_U_OFFtimer_S40 
C_U_OFFtimer_C175         U_OFFtimer_TSBY2 GND  1n IC=0 
C_U_OFFtimer_C146         GND U_OFFtimer_N16910625  1.443n IC=0 
C_U_OFFtimer_C186         U_OFFtimer_TONBY6 GND  1n IC=0 
X_U_OFFtimer_U742         U_OFFtimer_DISCH4_SOME U_OFFtimer_BB_RST
+  U_OFFtimer_N16907236 OR2_BASIC_GEN PARAMS: VDD=1 VSS=0 VTHRESH=500E-3
X_U_OFFtimer_U666         U_OFFtimer_N16910034 U_OFFtimer_N16907775
+  U_OFFtimer_TIMER_BB_START N16910144 srlatchrhp_basic_gen PARAMS: VDD=1 VSS=0
+  VTHRESH=0.5
D_U_OFFtimer_D59         U_OFFtimer_N16909150 PWM_TRIGGER D_D1 
X_U_OFFtimer_U835         BUCK VO_GR_VI_NEW U_OFFtimer_N16910125 OR2_BASIC_GEN
+  PARAMS: VDD=1 VSS=0 VTHRESH=500E-3
R_U_OFFtimer_R262         U_OFFtimer_DISCH4_SOME U_OFFtimer_N16907388  10  
X_U_OFFtimer_U22         U_OFFtimer_QB U_OFFtimer_QA_BAR U_OFFtimer_N16910256
+  AND2_BASIC_GEN PARAMS: VDD=1 VSS=0 VTHRESH=500E-3
X_U_OFFtimer_U688         U_OFFtimer_TONBY6 U_OFFtimer_N16907349
+  U_OFFtimer_N16907604 COMP_BASIC_GEN PARAMS: VDD=1 VSS=0 VTHRESH=0.5
X_U_OFFtimer_U655         BB_LDRV1 U_OFFtimer_N16910771 INV_BASIC_GEN PARAMS:
+  VDD=1 VSS=0 VTHRESH=500E-3
V_U_OFFtimer_V6         U_OFFtimer_N16910211 GND 1
C_U_OFFtimer_C181         GND U_OFFtimer_N16907388  1.443n IC=0 
R_U_OFFtimer_R260         U_OFFtimer_DISCH5_SOME U_OFFtimer_N16907358  10  
X_U_OFFtimer_U741         U_OFFtimer_DISCH5_SOME U_OFFtimer_BB_RST
+  U_OFFtimer_N16907329 OR2_BASIC_GEN PARAMS: VDD=1 VSS=0 VTHRESH=500E-3
X_U_OFFtimer_U763         BUCK U_OFFtimer_BUCK_B INV_BASIC_GEN PARAMS: VDD=1
+  VSS=0 VTHRESH=500E-3
E_U_OFFtimer_ABM158         U_OFFtimer_N19200499 0 VALUE {
+  IF(V(U_OFFtimer_PRE_LDRV1_5NS) > 0.5 & V(BUCK) > 0.5  & V(IND_SENSE) < 700m,
+  1, 0)    }
X_U_OFFtimer_U768         DISCH2_SOME DISCH3_SOME U_OFFtimer_BOCOM
+  U_OFFtimer_N17779772 OR3_BASIC_GEN PARAMS: VDD=1 VSS=0 VTHRESH=500E-3
X_U_OFFtimer_U780         VO_GR_VI_BOOST VO_GR_VI_BOOST ZCD U_OFFtimer_BOON
+  U_OFFtimer_N16910665 AND4_BASIC_GEN PARAMS: VDD=1 VSS=0 VTHRESH=500E-3
X_U_OFFtimer_U760         IVP_ACT U_OFFtimer_N19549984 one_shot PARAMS:  T=20  
X_U_OFFtimer_U834         BB_REGION ZCD ZCD PWM_INT U_OFFtimer_N16997694
+  AND4_BASIC_GEN PARAMS: VDD=1 VSS=0 VTHRESH=500E-3
R_U_OFFtimer_R263         U_OFFtimer_DISCH6_SOME U_OFFtimer_N16907529  10  
X_U_OFFtimer_U654         U_OFFtimer_BUOF BB_LDRV1 BUF_BASIC_GEN PARAMS: VDD=1
+  VSS=0 VTHRESH=0.5
X_U_OFFtimer_U27         U_OFFtimer_BOON_BAR U_OFFtimer_N16910889
+  U_OFFtimer_N16910847 AND2_BASIC_GEN PARAMS: VDD=1 VSS=0 VTHRESH=500E-3
X_U_OFFtimer_U669         U_OFFtimer_TIMER_EXPIRES_INT1 PWM_INT DISCH2_SOME
+  N16910468 srlatchrhp_basic_gen PARAMS: VDD=1 VSS=0 VTHRESH=0.5
C_U_OFFtimer_C177         U_OFFtimer_TONBY2 GND  1n IC=0 
X_U_OFFtimer_S41    U_OFFtimer_N16907329 GND U_OFFtimer_TSBY5 GND
+  OFF_Timer_mod_U_OFFtimer_S41 
X_U_OFFtimer_U20         U_OFFtimer_QB_BAR U_OFFtimer_QA_BAR
+  U_OFFtimer_N16910232 AND2_BASIC_GEN PARAMS: VDD=1 VSS=0 VTHRESH=500E-3
X_U_OFFtimer_U31         U_OFFtimer_BUCOM U_OFFtimer_BOCOM U_OFFtimer_N16907178
+  OR2_BASIC_GEN PARAMS: VDD=1 VSS=0 VTHRESH=500E-3
X_U_OFFtimer_U858         U_OFFtimer_N19200499 U_OFFtimer_N19286930
+  U_OFFtimer_N19290411 OR2_BASIC_GEN PARAMS: VDD=1 VSS=0 VTHRESH=500E-3
X_U_OFFtimer_U864         U_OFFtimer_N19422688 U_OFFtimer_N19391435
+  U_OFFtimer_ZCD_PFM ZCD AND3_BASIC_GEN PARAMS: VDD=1 VSS=0 VTHRESH=500E-3
X_U_OFFtimer_U29         U_OFFtimer_N16907504 U_OFFtimer_N16907535
+  U_OFFtimer_PWM_RESET_SHOT AND2_BASIC_GEN PARAMS: VDD=1 VSS=0 VTHRESH=500E-3
X_U_OFFtimer_U850         DISCH2_SOME U_OFFtimer_BUCK_50NS_OFF
+  U_OFFtimer_N16909355 OR2_BASIC_GEN PARAMS: VDD=1 VSS=0 VTHRESH=500E-3
V_U_OFFtimer_V7         U_OFFtimer_N16907277 GND 10
X_U_OFFtimer_U46         U_OFFtimer_PFM_MODE_ACT U_OFFtimer_N17779772
+  U_OFFtimer_BLOCK_ON AND2_BASIC_GEN PARAMS: VDD=1 VSS=0 VTHRESH=500E-3
X_U_OFFtimer_U863         U_OFFtimer_N19372792 U_OFFtimer_SET_BB_EXIT_BUCK
+  BUF_DELAY_BASIC_GEN PARAMS: VDD=1 VSS=0 VTHRESH=0.5 DELAY=20n
X_U_OFFtimer_U740         BOOST U_OFFtimer_N17111743 INV_BASIC_GEN PARAMS:
+  VDD=1 VSS=0 VTHRESH=500E-3
X_U_OFFtimer_U657         U_OFFtimer_N16910876 BB_LDRV1 BB_HDRV1 N16910853
+  srlatchrhp_basic_gen PARAMS: VDD=1 VSS=0 VTHRESH=0.5
E_U_BBMode_ABM1         U_BBMode_N16962322 0 VALUE { MAX((V(VIN) - 0.37),1u)   
+  }
X_U_BBMode_U847         U_BBMode_N16962322 VOUT U_BBMode_N16962427
+  VIN_GR_VO_BUCK COMPHYS_BASIC_GEN PARAMS: VDD=1 VSS=0 VTHRESH=0.5
X_U_BBMode_U848         U_BBMode_N16962277 VIN U_BBMode_N16962369
+  VO_GR_VI_BOOST COMPHYS_BASIC_GEN PARAMS: VDD=1 VSS=0 VTHRESH=0.5
X_U_BBMode_U664         U_BBMode_N16941801 U_BBMode_N16941782 BUCK N16941786
+  srlatchrhp_basic_gen PARAMS: VDD=1 VSS=0 VTHRESH=0.5
X_U_BBMode_U663         U_BBMode_N16942156 U_BBMode_N16942067 BB_MODE BB_MODE_B
+  srlatchrhp_basic_gen PARAMS: VDD=1 VSS=0 VTHRESH=0.5
V_U_BBMode_V1         U_BBMode_N16962427 0 50m
X_U_BBMode_U833         SDWN U_BBMode_SDWN_SHOT one_shot PARAMS:  T=100
V_U_BBMode_V2         U_BBMode_N16962369 0 50m
X_U_BBMode_U660         BB_EXIT_BOOST BB_EXIT_BUCK U_BBMode_N16942067
+  OR2_BASIC_GEN PARAMS: VDD=1 VSS=0 VTHRESH=500E-3
X_U_BBMode_U834         VIN_GR_VO_BUCK VO_GR_VI_BOOST BB_REGION XNOR2_BASIC_GEN
+  PARAMS: VDD=1 VSS=0 VTHRESH=500E-3
X_U_BBMode_U665         BOOST_ENTRY U_BBMode_N16952584 BOOST N16942405
+  srlatchrhp_basic_gen PARAMS: VDD=1 VSS=0 VTHRESH=0.5
X_U_BBMode_U849         U_BBMode_N17026781 VOUT U_BBMode_N17026774 VI_GR_VO_NEW
+  COMPHYS_BASIC_GEN PARAMS: VDD=1 VSS=0 VTHRESH=0.5
X_U_BBMode_U855         BB_ENTRY_BOOST VI_GR_VO_NEW BB_REGION_NEW
+  U_BBMode_N16952584 OR3_BASIC_GEN PARAMS: VDD=1 VSS=0 VTHRESH=500E-3
X_U_BBMode_U840         BB_EXIT_BUCK U_BBMode_N16943295 BUF_DELAY_BASIC_GEN
+  PARAMS: VDD=1 VSS=0 VTHRESH=0.5 DELAY=5n
X_U_BBMode_U845         BB_EXIT_BOOST BOOST_ENTRY BUF_DELAY_BASIC_GEN PARAMS:
+  VDD=1 VSS=0 VTHRESH=0.5 DELAY=5n