*$
* TPS62122
*****************************************************************************
* (C) Copyright 2020 Texas Instruments Incorporated. All rights reserved.                                            
*****************************************************************************
** This model is designed as an aid for customers of Texas Instruments.
** TI and its licensors and suppliers make no warranties, either expressed
** or implied, with respect to this model, including the warranties of 
** merchantability or fitness for a particular purpose.  The model is
** provided solely on an "as is" basis.  The entire risk as to its quality
** and performance is with the customer
*****************************************************************************
*
* This model is subject to change without notice. Texas Instruments
* Incorporated is not responsible for updating this model.
*
*****************************************************************************
*
** Released by: Texas Instruments Inc.
* Part: TPS62122
* Date: 22DEC2020
* Model Type: TRANSIENT
* Simulator: PSPICE
* Simulator Version: 17.4-2019 S012
* EVM Order Number: TPS62122EVM
* EVM User's Guide: SLVU388–August 2010
* Datasheet: SLVSAD5A –JULY 2010–REVISED AUGUST 2015
* Topologies Supported: Buck
*
* Model Version: Final 1.10
*
*****************************************************************************
*
* Updates:
* 
* Final 1.10
* Enable hysteresis has been changed to 200mV.
* EN Rising Threshold= 800mV
* EN Falling Threshold= 600mV
* Release to Web.
*
* Final 1.00
* Release to Web.
*
*****************************************************************************
*
* Model Usage Notes:
*
* A. Features have been modelled
*  1. Current Limit
*  2. UVLO
*  3. Power Good Open Drain Output
*
* B. Features have not been modeled
*  1. Operating Quiescent Current
*  2. Shutdown Current 
*  3. Temperature dependent characteristics
*
*****************************************************************************
.SUBCKT TPS62122_TRANS EN FB GND SW VIN VOUT  
X_U4         MIN_TOFF MIN_TOFF_N INV_BASIC_GEN PARAMS: VDD=1 VSS=0
+  VTHRESH=500E-3
X_U5_U2         DRVL_PRE U5_N03489 CLIMIT_LS AND2_BASIC_GEN PARAMS: VDD=1 VSS=0
+  VTHRESH=500E-3
V_U5_V1         U5_N11335 0 240m
R_U5_R1         EN_LOGIC U5_N03815  72k  
X_U5_U8         U5_N03815 EN_LOGIC D_D1
V_U5_V2         U5_N03621 0 250m
C_U5_C2         0 U5_N06443  1n  
C_U5_C1         0 U5_N03815  1n  
X_U5_U1         U5_N11335 ISENSE_LS U5_N03489 COMP_BASIC_GEN PARAMS: VDD=1
+  VSS=0 VTHRESH=0.5
C_U5_C3         0 U5_N03743  1n  
X_U5_U7         EN_LOGIC U5_N03815 U5_N03773 AND2_BASIC_GEN PARAMS: VDD=1 VSS=0
+  VTHRESH=500E-3
V_U5_V3         U5_N12138 0  
+PULSE 0 1 1u 10n 10n 1000 2000
E_U5_ABM1         U5_N06376 0 VALUE { (V(U5_OUT) * -650m)    }
X_U5_U3         ISENSE_HS U5_N03621 U5_N03655 COMP_BASIC_GEN PARAMS: VDD=1
+  VSS=0 VTHRESH=0.5
X_U5_U9         U5_OUT U5_N03773 U5_N12138 SDWN_N AND3_BASIC_GEN PARAMS: VDD=1
+  VSS=0 VTHRESH=500E-3
E_U5_ABM2         U5_N129691 0 VALUE { (V(U5_N06443) + 2.49)    }
X_U5_U5         VIN U5_N03743 U5_OUT COMP_BASIC_GEN PARAMS: VDD=1 VSS=0
+  VTHRESH=0.5
R_U5_R2         U5_N06376 U5_N06443  1  
R_U5_R3         U5_N129691 U5_N03743  1  
X_U5_U4         U5_N03655 DRVH_PRE CLIMIT_HS AND2_BASIC_GEN PARAMS: VDD=1 VSS=0
+  VTHRESH=500E-3
C_C2         0 N73924  100p  
X_U26         N73924 P100 BUF_BASIC_GEN PARAMS: VDD=1 VSS=0 VTHRESH=0.5
R_U7_R1         0 ISENSE_HS  1k  
V_U7_V1         U7_N341780 SW 620m
E_U7_ABM6         U7_N60886 0 VALUE { IF(V(VIN_LDO) <1,1,V(VIN_LDO))    }
X_U7_U8         U7_N38644 U7_N38518 DRVL_PRE U7_NMOS_CTRL MUX2_BASIC_GEN
+  PARAMS: VDD=1 VSS=0 VTHRESH=0.5
X_U7_U11         HS_ON U7_N33760 BUF_DELAY_BASIC_GEN PARAMS: VDD=1 VSS=0
+  VTHRESH=0.5 DELAY=8n
R_U7_R4         U7_N33994 U7_N33986  1  
E_U7_ABM5         U7_N38522 0 VALUE {
+  1m*((-45.778/(V(U7_N60886)-0.9257))+786.2576)    }
C_U7_C3         0 U7_N38518  1n  
R_U7_R2         0 ISENSE_LS  1k  
X_U7_U4         U7_N33832 U7_N33808 BUF_DELAY_BASIC_GEN PARAMS: VDD=1 VSS=0
+  VTHRESH=0.5 DELAY=24n
V_U7_V4         U7_N38644 0 0
E_U7_ABM4         U7_N33994 0 VALUE {
+  1m*((-134.009/(V(VIN_LDO)+0.2631))+771.6005)    }
V_U7_V3         U7_N35044 0 0
X_U7_H1    VIN U7_N33952 ISENSE_HS 0 Driver_U7_H1 
X_U7_U7         U7_N35044 U7_N33986 DRVH_PRE U7_PMOS_CTRL MUX2_BASIC_GEN
+  PARAMS: VDD=1 VSS=0 VTHRESH=0.5
X_U7_S3    U7_PMOS_CTRL 0 U7_N33952 SW Driver_U7_S3 
V_U7_V2         SW U7_N37456 620m
X_U7_U12         LS_ON U7_N33832 BUF_DELAY_BASIC_GEN PARAMS: VDD=1 VSS=0
+  VTHRESH=0.5 DELAY=8n
X_U7_H2    U7_N33844 0 0 ISENSE_LS Driver_U7_H2 
X_U7_U3         U7_N33832 U7_N33808 DRVL_PRE AND2_BASIC_GEN PARAMS: VDD=1 VSS=0
+  VTHRESH=500E-3
X_U7_S4    U7_NMOS_CTRL 0 SW U7_N33844 Driver_U7_S4 
C_U7_C2         0 U7_N33986  1n  
X_U7_U5         U7_N33844 U7_N341780 d_d1special PARAMS:
X_U7_U2         U7_N33760 U7_N33764 DRVH_PRE AND2_BASIC_GEN PARAMS: VDD=1 VSS=0
+  VTHRESH=500E-3
X_U7_U6         U7_N37456 U7_N33952 d_d1special PARAMS:
X_U7_U1         U7_N33760 U7_N33764 BUF_DELAY_BASIC_GEN PARAMS: VDD=1 VSS=0
+  VTHRESH=0.5 DELAY=6n
R_U7_R5         U7_N38522 U7_N38518  1  
R_R4         0 EN  160MEG  
X_U6         SDWN_N SDWN INV_BASIC_GEN PARAMS: VDD=1 VSS=0 VTHRESH=500E-3
E_GAIN1         N73876 0 VALUE {1 * V(HS_ON)}
R_R6         0 GND  1k  
R_U6_R4         0 U6_N20123  10k  
X_U6_U13         DRVL_PRE U6_N14289 U6_N15145 AND2_BASIC_GEN PARAMS: VDD=1
+  VSS=0 VTHRESH=500E-3
X_U6_U12         U6_N23722 ISENSE_LS U6_N14289 COMP_BASIC_GEN PARAMS: VDD=1
+  VSS=0 VTHRESH=0.5
X_U6_U14         U6_N15145 DRVH_PRE CAPRIO U6_N20123 SRLATCHRHP_BASIC_GEN
+  PARAMS: VDD=1 VSS=0 VTHRESH=0.5
X_U6_U16         MODE_LOGIC U6_N16390 INV_BASIC_GEN PARAMS: VDD=1 VSS=0
+  VTHRESH=500E-3
R_U6_R3         U6_N17195 U6_N16592  720p  
X_U6_U15         U6_N16390 U6_N16592 PAUSE AND2_BASIC_GEN PARAMS: VDD=1 VSS=0
+  VTHRESH=500E-3
X_U6_U18         DRVH_PRE DRVL_PRE U6_N17195 NOR2_BASIC_GEN PARAMS: VDD=1 VSS=0
+  VTHRESH=500E-3
C_U6_C4         0 U6_N16592  100p  
X_U6_U17         U6_N16592 U6_N17195 D_D1
V_U6_V1         U6_N23722 0 1.5m
C_U3_C2         0 U3_N10915  480f  
V_U3_V5         U3_N11301 0 1.2
V_U3_V4         U3_N14024 0 667m
X_U3_S1    U3_N12733 0 U3_N10915 0 Mintoff_U3_S1 
I_U3_I1         U3_N11301 U3_N10915 DC 5.336u  
X_U3_U9         U3_N14024 U3_N10915 MIN_TOFF COMP_BASIC_GEN PARAMS: VDD=1 VSS=0
+  VTHRESH=0.5
X_U3_U11         DRVL_PRE U3_N12733 INV_BASIC_GEN PARAMS: VDD=1 VSS=0
+  VTHRESH=500E-3
X_U3_U10         U3_N10915 U3_N11301 D_D1
R_R3         N73876 N73924  144k  
E_U4_ABM2         U4_N15867 0 VALUE { IF(V(MODE) > 0.8,1,0)    }
R_U4_R2         U4_N15867 MODE_LOGIC  1  
C_U4_C2         0 MODE_LOGIC  1n  
V_U4_V2         U4_N999280 0 0.2
X_U4_U1         EN U4_N99846 U4_N999280 EN_LOGIC COMPHYS_BASIC_GEN PARAMS:
+  VDD=1 VSS=0 VTHRESH=0.5
V_U4_V1         U4_N99846 0 0.8
X_U19         N73924 N73876 D_D1
C_U1_C9         0 U1_N148765  1n  
C_U1_C6         0 U1_N148771  1n  
R_U1_R11         U1_INNER_REF 0  2.4G  
V_U1_V6         U1_N194447 0 0.744
V_U1_V1         U1_N147365 0 15m
R_U1_R7         0 U1_N147163  8k  
X_U1_S1    U1_FBREF_SHORT 0 U1_INNER_FB U1_ISINK ErrorAmp_U1_S1 
R_U1_R16         U1_N204803 U1_VCLAMP_OUT  1  
X_U1_S2    HS_ON 0 U1_N147247 U1_N147163 ErrorAmp_U1_S2 
E_U1_ABM1         U1_N147191 0 VALUE { IF(V(SDWN_N) < 0.5,0,0.8)    }
V_U1_V3         U1_N147613 0 4.2
R_U1_R14         U1_N192580 U1_N205717  1  
X_U1_S3    SDWN_N 0 U1_INNER_FB U1_INNER_REF ErrorAmp_U1_S3 
X_U1_U1         U1_N147247 U1_N147365 D_D1
C_U1_C7         0 U1_VCLAMP  1n  
X_U1_U6         U1_INNER_REF U1_N147613 D_D1
R_U1_R8         SWBY4 U1_N147079  833k  
R_U1_R12         U1_N147133 U1_N148771  1  
R_U1_R6         U1_INNER_REF U1_ISINK  1MEG  
R_U1_R17         0 SWBY4  500k  
E_U1_ABM3         U1_N147133 0 VALUE { IF(V(U1_VCLAMP) > 125n, 125n,  
+ IF (V(U1_VCLAMP) <-125n,  
+ -125n,V(U1_VCLAMP)))  }
X_U1_U8         PAUSE P100 U1_FBREF_SHORT OR2_BASIC_GEN PARAMS: VDD=1 VSS=0
+  VTHRESH=500E-3
C_U1_C11         0 U1_N205717  1n  
R_U1_R9         U1_N147197 U1_N147191  1  
X_U1_U5         SDWN_N U1_N147377 INV_BASIC_GEN PARAMS: VDD=1 VSS=0
+  VTHRESH=500E-3
C_U1_C8         0 U1_VCLAMP_OUT  1n  
R_U1_R13         U1_VCLAMP U1_N175122  1  
X_U1_U3         FB U1_N147219 U1_N147271 COMP_BASIC_GEN PARAMS: VDD=1 VSS=0
+  VTHRESH=0.5
X_U1_U4         U1_N147271 U1_N147377 N148783 U1_SOFTSTART SRLATCHRHP_BASIC_GEN
+  PARAMS: VDD=1 VSS=0 VTHRESH=0.5
E_U1_ABM6         U1_N180936 0 VALUE { IF(V(HS_ON) > 0.5,1.5u,0)    }
R_U1_R1         U1_INNER_FB U1_N147079  3MEG  
C_U1_C3         U1_N147163 U1_INNER_REF  10p  
G_U1_ABMII1         0 U1_INNER_REF VALUE { V(U1_VCLAMP_OUT)    }
E_U1_ABM9         U1_N204803 0 VALUE { IF(V(SDWN_N) < 0.5,0,  
+ V(U1_N205717))   }
R_U1_R19         U1_N180936 U1_VCTRLM  1  
E_U1_ABM7         U1_N192580 0 VALUE { IF(V(CL_DET) > 0.5,0,  
+ V(U1_N148405))   }
X_U1_U2         U1_INNER_REF U1_INNER_FB PWMIN COMP_BASIC_GEN PARAMS: VDD=1
+  VSS=0 VTHRESH=0.5
X_U1_U7         U1_N148765 U1_N148771 U1_SOFTSTART U1_N148405 MUX2_BASIC_GEN
+  PARAMS: VDD=1 VSS=0 VTHRESH=0.5
C_U1_C1         VOUT U1_INNER_FB  12.5p  
C_U1_C10         0 U1_VCTRLM  1n  
R_U1_R15         U1_N148765 U1_N195543  1  
X_U1_U10         FB U1_N194447 U1_N194443 COMP_BASIC_GEN PARAMS: VDD=1 VSS=0
+  VTHRESH=0.5
G_U1_ABMII2         U1_N147365 U1_N147247 VALUE { V(U1_VCTRLM)    }
E_U1_ABM4         U1_N175122 0 VALUE { LIMIT(((V(U1_N147197) -V(FB))*5.3u),  
+ 500n,-500n)   }
E_U1_ABM8         U1_N195543 0 VALUE { IF(V(U1_N194443) > 0.5,V(U1_VCLAMP),  
+ 125n)   }
R_U1_R3         U1_N147079 SW  666k  
V_U1_V2         U1_N147219 0 0.76
V_U1_V4         U1_ZEROV 0 0
C_U1_C4         0 U1_N147197  1n  
X_U1_U9         0 U1_INNER_REF D_D1
G_U1_ABM2I1         U1_ISINK 0 VALUE { IF(V(CL_DET) > 0.5,125n,0)    }
X_U2_U9         U2_N14352 U2_N10820 MIN_TON COMP_BASIC_GEN PARAMS: VDD=1 VSS=0
+  VTHRESH=0.5
R_U2_R1         U2_N10820 VIN  465k  
X_U2_S1    U2_N12733 0 U2_N10820 0 Minton_U2_S1 
C_U2_C3         0 U2_N14352  5p  
C_U2_C2         0 U2_N10820  10.4p  
X_U2_U11         DRVH_PRE U2_N12733 INV_BASIC_GEN PARAMS: VDD=1 VSS=0
+  VTHRESH=500E-3
R_U2_R2         SWBY4 U2_N14352  1.3MEG  
X_U3         MIN_TON MIN_TON_N INV_BASIC_GEN PARAMS: VDD=1 VSS=0 VTHRESH=500E-3
X_U8_U24         PWMIN U8_N97755 U8_PWM AND2_BASIC_GEN PARAMS: VDD=1 VSS=0
+  VTHRESH=500E-3
X_U8_U20         LS_ON U8_LS_ON_N INV_BASIC_GEN PARAMS: VDD=1 VSS=0
+  VTHRESH=500E-3
X_U8_U9         U8_PWM U8_N96933 INV_BASIC_GEN PARAMS: VDD=1 VSS=0
+  VTHRESH=500E-3
X_U8_U21         CAPRIO SDWN U8_N96965 U8_LS_RST OR3_BASIC_GEN PARAMS: VDD=1
+  VSS=0 VTHRESH=500E-3
C_U8_C1         0 U8_HS_RST  10p  
X_U8_U14         HS_ON U8_HS_ON_N INV_BASIC_GEN PARAMS: VDD=1 VSS=0
+  VTHRESH=500E-3
X_U8_U23         CLIMIT_HS U8_N97725 CL_DET U8_N97755 SRLATCHRHP_BASIC_GEN
+  PARAMS: VDD=1 VSS=0 VTHRESH=0.5
X_U8_U10         U8_N96933 MIN_TON_N U8_N96937 AND2_BASIC_GEN PARAMS: VDD=1
+  VSS=0 VTHRESH=500E-3
X_U8_U15         U8_HS_ON_N U8_N97631 LS_ON AND2_BASIC_GEN PARAMS: VDD=1 VSS=0
+  VTHRESH=500E-3
X_U8_U17         CAPRIO U8_N97707 INV_BASIC_GEN PARAMS: VDD=1 VSS=0
+  VTHRESH=500E-3
X_U8_U18         U8_LS_SET U8_LS_RST U8_N97631 U8_LS_ON_PRE
+  SRLATCHRHP_BASIC_GEN PARAMS: VDD=1 VSS=0 VTHRESH=0.5
X_U8_U12         U8_N96973 U8_HS_RST D_D1
X_U8_U25         CAPRIO SDWN U8_N97725 OR2_BASIC_GEN PARAMS: VDD=1 VSS=0
+  VTHRESH=500E-3
X_U8_U16         U8_N97687 U8_N97707 SDWN_N U8_LS_SET AND3_BASIC_GEN PARAMS:
+  VDD=1 VSS=0 VTHRESH=500E-3
R_U8_R2         0 U8_N96873  10k  
X_U8_U7         U8_LS_ON_PRE SDWN_N U8_PWM U8_HS_SET AND3_BASIC_GEN PARAMS:
+  VDD=1 VSS=0 VTHRESH=500E-3
X_U8_U22         MIN_TOFF_N U8_PWM U8_N96965 AND2_BASIC_GEN PARAMS: VDD=1 VSS=0
+  VTHRESH=500E-3
X_U8_U13         U8_HS_ON_N U8_N96933 U8_N97687 AND2_BASIC_GEN PARAMS: VDD=1
+  VSS=0 VTHRESH=500E-3
X_U8_U11         CLIMIT_HS U8_N96937 SDWN U8_N96973 OR3_BASIC_GEN PARAMS: VDD=1
+  VSS=0 VTHRESH=500E-3
R_U8_R1         U8_N96973 U8_HS_RST  800  
X_U8_U8         U8_HS_SET U8_HS_RST HS_ON U8_N96873 SRLATCHRHP_BASIC_GEN
+  PARAMS: VDD=1 VSS=0 VTHRESH=0.5
R_R5         N128939 VIN_LDO  1  
V_V1         MODE 0 0Vdc
E_ABM1         N128939 0 VALUE { IF(V(VIN) > 6V, 6, V(VIN))    }
C_C3         0 VIN_LDO  1n  
.ENDS TPS62122_TRANS
*$
.subckt Driver_U7_H1 1 2 3 4  
H_U7_H1         3 4 VH_U7_H1 1
VH_U7_H1         1 2 0V
.ends Driver_U7_H1
*$
.subckt Driver_U7_S3 1 2 3 4  
S_U7_S3         3 4 1 2 _U7_S3
RS_U7_S3         1 2 1G
.MODEL         _U7_S3 VSWITCH Roff=10e6 Ron=100m Voff=0 Von=1.0V
.ends Driver_U7_S3
*$
.subckt Driver_U7_H2 1 2 3 4  
H_U7_H2         3 4 VH_U7_H2 1
VH_U7_H2         1 2 0V
.ends Driver_U7_H2
*$
.subckt Driver_U7_S4 1 2 3 4  
S_U7_S4         3 4 1 2 _U7_S4
RS_U7_S4         1 2 1G
.MODEL         _U7_S4 VSWITCH Roff=10e6 Ron=100m Voff=0 Von=1.0V
.ends Driver_U7_S4
*$
.subckt Mintoff_U3_S1 1 2 3 4  
S_U3_S1         3 4 1 2 _U3_S1
RS_U3_S1         1 2 1G
.MODEL         _U3_S1 VSWITCH Roff=10e6 Ron=1.0 Voff=0.2 Von=0.8
.ends Mintoff_U3_S1
*$
.subckt ErrorAmp_U1_S1 1 2 3 4  
S_U1_S1         3 4 1 2 _U1_S1
RS_U1_S1         1 2 1G
.MODEL         _U1_S1 VSWITCH Roff=1000e6 Ron=1m Voff=0.4V Von=0.8V
.ends ErrorAmp_U1_S1
*$
.subckt ErrorAmp_U1_S2 1 2 3 4  
S_U1_S2         3 4 1 2 _U1_S2
RS_U1_S2         1 2 1G
.MODEL         _U1_S2 VSWITCH Roff=100e6 Ron=1m Voff=0.4V Von=0.8V
.ends ErrorAmp_U1_S2
*$
.subckt ErrorAmp_U1_S3 1 2 3 4  
S_U1_S3         3 4 1 2 _U1_S3
RS_U1_S3         1 2 1G
.MODEL         _U1_S3 VSWITCH Roff=1 Ron=10G Voff=0.2V Von=0.9V
.ends ErrorAmp_U1_S3
*$
.subckt Minton_U2_S1 1 2 3 4  
S_U2_S1         3 4 1 2 _U2_S1
RS_U2_S1         1 2 1G
.MODEL         _U2_S1 VSWITCH Roff=100e6 Ron=1 Voff=0.2 Von=0.8
.ends Minton_U2_S1
*$
.subckt d_d1special 1 2
d1 1 2 dd1spec
.model dd1spec d
+ is=1e-15
+ tt=1e-11
+ rs=0.05
+ n=0.1
.ends d_d1special
*$
*.MODEL D_D1 D( IS=1e-15 TT=10p Rs=0.05 N=.1  )
*$
*.SUBCKT D_D1special 1 2
*D1 1 2 DD1spec
*.MODEL DD1spec D( IS=1e-15 TT=10p Rs=0.8 N=.1  )
*.ENDS D_D1special
*$
.SUBCKT VC_RES CTRLP CTRLN OUTP OUTN
ERES OUTP INT VALUE={(I(VSENSE)*V(CTRLP,CTRLN))}
VSENSE INT OUTN DC 0
.ENDS VC_RES
*$
.SUBCKT D_D1 1 2
D1 1 2 D_D1
.ENDS D_D1
*$
.MODEL D_D1 D( IS=1e-15 TT=10p Rs=0.01 N=0.1  )
*$
.SUBCKT D_D1special 1 2
D1 1 2 DD1spec
.MODEL DD1spec D( IS=1e-15 TT=10p Rs=0.05 N=0.1  )
.ENDS D_D1special
*$
.SUBCKT COMP_BASIC_GEN INP INM Y PARAMS: VDD=1 VSS=0 VTHRESH=0.5	
E_ABM Yint 0 VALUE {IF (V(INP) > 
+ V(INM), {VDD},{VSS})}
R1 Yint Y 1
C1 Y 0 250p
.ENDS COMP_BASIC_GEN
*$
.SUBCKT COMPHYS_BASIC_GEN INP INM HYS OUT PARAMS: VDD=1 VSS=0 VTHRESH=0.5	
EIN INP1 INM1 INP INM 1 
EHYS INP1 INP2 VALUE { IF( V(1) > {VTHRESH},-V(HYS),0) }
EOUT OUT 0 VALUE { IF( V(INP2)>V(INM1), {VDD} ,{VSS}) }
R1 OUT 1 1
C1 1 0 500p
RINP1 INP1 0 1K
.ENDS COMPHYS_BASIC_GEN
*$
.SUBCKT COMPHYS2_BASIC_GEN INP INM HYS OUT PARAMS: VDD=1 VSS=0 VTHRESH=0.5	
+ T=10
EIN INP1 INM1 INP INM 1 
EHYS INM2 INM1 VALUE { IF( V(1) > {VTHRESH},-V(HYS)/2,V(HYS)/2) }
EOUT OUT 0 VALUE { IF( V(INP1)>V(INM2), {VDD} ,{VSS}) }
R1 OUT 1 1
C1 1 0 {T*1e-10}
RINP1 INP1 0 10K
RINM2 INM2 0 10K
.ENDS COMPHYS2_BASIC_GEN
*$
.SUBCKT AND2_BASIC_GEN A B Y PARAMS: VDD=1 VSS=0 VTHRESH=0.5 
E_ABMGATE    YINT 0 VALUE {{IF(V(A) > {VTHRESH}  &  
+ V(B) > {VTHRESH},{VDD},{VSS})}}
RINT YINT Y 1
CINT Y 0 250p
.ENDS AND2_BASIC_GEN
*$
.SUBCKT AND3_BASIC_GEN A B C Y PARAMS: VDD=1 VSS=0 VTHRESH=0.5 
E_ABMGATE    YINT 0 VALUE {{IF(V(A) > {VTHRESH}  &  
+ V(B) > {VTHRESH} &
+ V(C) > {VTHRESH},{VDD},{VSS})}}
RINT YINT Y 1
CINT Y 0 250p
.ENDS AND3_BASIC_GEN
*$
.SUBCKT AND4_BASIC_GEN A B C D Y PARAMS: VDD=1 VSS=0 VTHRESH=0.5 
E_ABMGATE    YINT 0 VALUE {{IF(V(A) > {VTHRESH}  &  
+ V(B) > {VTHRESH} &
+ V(C) > {VTHRESH} &
+ V(D) > {VTHRESH},{VDD},{VSS})}}
RINT YINT Y 1
CINT Y 0 250p
.ENDS AND4_BASIC_GEN
*$
.SUBCKT NAND2_BASIC_GEN A B Y PARAMS: VDD=1 VSS=0 VTHRESH=0.5 
E_ABMGATE    YINT 0 VALUE {{IF(V(A) > {VTHRESH}  &  
+ V(B) > {VTHRESH},{VSS},{VDD})}}
RINT YINT Y 1
CINT Y 0 250p
.ENDS NAND2_BASIC_GEN
*$
.SUBCKT NAND3_BASIC_GEN A B C Y PARAMS: VDD=1 VSS=0 VTHRESH=0.5 
E_ABMGATE    YINT 0 VALUE {{IF(V(A) > {VTHRESH}  &  
+ V(B) > {VTHRESH} &
+ V(C) > {VTHRESH},{VSS},{VDD})}}
RINT YINT Y 1
CINT Y 0 250p
.ENDS NAND3_BASIC_GEN
*$
.SUBCKT NAND4_BASIC_GEN A B C D Y PARAMS: VDD=1 VSS=0 VTHRESH=0.5 
E_ABMGATE    YINT 0 VALUE {{IF(V(A) > {VTHRESH}  &  
+ V(B) > {VTHRESH} &
+ V(C) > {VTHRESH} &
+ V(D) > {VTHRESH},{VSS},{VDD})}}
RINT YINT Y 1
CINT Y 0 250p
.ENDS NAND4_BASIC_GEN
*$
.SUBCKT OR2_BASIC_GEN A B Y PARAMS: VDD=1 VSS=0 VTHRESH=0.5 
E_ABMGATE    YINT 0 VALUE {{IF(V(A) > {VTHRESH}  |  
+ V(B) > {VTHRESH},{VDD},{VSS})}}
RINT YINT Y 1
CINT Y 0 250p
.ENDS OR2_BASIC_GEN
*$
.SUBCKT OR3_BASIC_GEN A B C Y PARAMS: VDD=1 VSS=0 VTHRESH=0.5 
E_ABMGATE    YINT 0 VALUE {{IF(V(A) > {VTHRESH}  |  
+ V(B) > {VTHRESH} |
+ V(C) > {VTHRESH},{VDD},{VSS})}}
RINT YINT Y 1
CINT Y 0 250p
.ENDS OR3_BASIC_GEN
*$
.SUBCKT OR4_BASIC_GEN A B C D Y PARAMS: VDD=1 VSS=0 VTHRESH=0.5 
E_ABMGATE    YINT 0 VALUE {{IF(V(A) > {VTHRESH}  |  
+ V(B) > {VTHRESH} |
+ V(C) > {VTHRESH} |
+ V(D) > {VTHRESH},{VDD},{VSS})}}
RINT YINT Y 1
CINT Y 0 250p
.ENDS OR4_BASIC_GEN
*$
.SUBCKT NOR2_BASIC_GEN A B Y PARAMS: VDD=1 VSS=0 VTHRESH=0.5 
E_ABMGATE    YINT 0 VALUE {{IF(V(A) > {VTHRESH}  |  
+ V(B) > {VTHRESH},{VSS},{VDD})}}
RINT YINT Y 1
CINT Y 0 250p
.ENDS NOR2_BASIC_GEN
*$
.SUBCKT NOR3_BASIC_GEN A B C Y PARAMS: VDD=1 VSS=0 VTHRESH=0.5 
E_ABMGATE    YINT 0 VALUE {{IF(V(A) > {VTHRESH}  |  
+ V(B) > {VTHRESH} |
+ V(C) > {VTHRESH},{VSS},{VDD})}}
RINT YINT Y 1
CINT Y 0 250p
.ENDS NOR3_BASIC_GEN
*$
.SUBCKT NOR4_BASIC_GEN A B C D Y PARAMS: VDD=1 VSS=0 VTHRESH=0.5 
E_ABMGATE    YINT 0 VALUE {{IF(V(A) > {VTHRESH}  |  
+ V(B) > {VTHRESH} |
+ V(C) > {VTHRESH} |
+ V(D) > {VTHRESH},{VSS},{VDD})}}
RINT YINT Y 1
CINT Y 0 250p
.ENDS NOR4_BASIC_GEN
*$
.SUBCKT NOR5_BASIC_GEN A B C D E Y PARAMS: VDD=1 VSS=0 VTHRESH=0.5 
E_ABMGATE YINT 0 VALUE {{IF(V(A) > {VTHRESH}  |  
+ V(B) > {VTHRESH} |
+ V(C) > {VTHRESH} |
+ V(D) > {VTHRESH} |
+ V(E) > {VTHRESH},{VSS},{VDD})}}
RINT YINT Y 1
CINT Y 0 250p
.ENDS NOR5_BASIC_GEN
*$
.SUBCKT NOR6_BASIC_GEN A B C D E F Y PARAMS: VDD=1 VSS=0 VTHRESH=0.5 
E_ABMGATE YINT 0 VALUE {{IF(V(A) > {VTHRESH}  |  
+ V(B) > {VTHRESH} |
+ V(C) > {VTHRESH} |
+ V(D) > {VTHRESH} |
+ V(E) > {VTHRESH} |
+ V(F) > {VTHRESH},{VSS},{VDD})}}
RINT YINT Y 1
CINT Y 0 250p
.ENDS NOR6_BASIC_GEN
*$
.SUBCKT INV_BASIC_GEN A  Y PARAMS: VDD=1 VSS=0 VTHRESH=0.5 
E_ABMGATE    YINT 0 VALUE {{IF(V(A) > {VTHRESH} , 
+ {VSS},{VDD})}}
RINT YINT Y 1
CINT Y 0 250p
.ENDS INV_BASIC_GEN
*$
.SUBCKT XOR2_BASIC_GEN A B Y PARAMS: VDD=1 VSS=0 VTHRESH=0.5 
E_ABMGATE  YINT 0 VALUE {{IF(V(A) > {VTHRESH}  ^  
+ V(B) > {VTHRESH},{VDD},{VSS})}}
RINT YINT Y 1
CINT Y 0 250p
.ENDS XOR2_BASIC_GEN
*$
.SUBCKT XNOR2_BASIC_GEN A B Y PARAMS: VDD=1 VSS=0 VTHRESH=0.5 
E_ABMGATE  YINT 0 VALUE {{IF(V(A) > {VTHRESH}  ^  
+ V(B) > {VTHRESH},{VSS},{VDD})}}
RINT YINT Y 1
CINT Y 0 250p
.ENDS XNOR2_BASIC_GEN
*$
.SUBCKT MUX2_BASIC_GEN A B S Y PARAMS: VDD=1 VSS=0 VTHRESH=0.5 
E_ABMGATE  YINT 0 VALUE {{IF(V(S) > {VTHRESH},  
+ V(B),V(A))}}
RINT YINT Y 1
CINT Y 0 250p
.ENDS MUX2_BASIC_GEN
*$
.SUBCKT INV_DELAY_BASIC_GEN A  Y PARAMS: VDD=1 VSS=0 VTHRESH=0.5 DELAY = 10n 
E_ABMGATE1    YINT1 0 VALUE {{IF(V(A) > {VTHRESH} , 
+ {VDD},{VSS})}}
RINT YINT1 YINT2 1
CINT YINT2 0 {DELAY*1.3}
E_ABMGATE2    YINT3 0 VALUE {{IF(V(YINT2) > {VTHRESH} , 
+ {VSS},{VDD})}}
RINT2 YINT3 Y 1
CINT2 Y 0 250p
.ENDS INV_DELAY_BASIC_GEN
*$
.SUBCKT BUF_DELAY_BASIC_GEN A  Y PARAMS: VDD=1 VSS=0 VTHRESH=0.5 DELAY = 10n 
E_ABMGATE1    YINT1 0 VALUE {{IF(V(A) > {VTHRESH} , 
+ {VDD},{VSS})}}
RINT YINT1 YINT2 1
CINT YINT2 0 {DELAY*1.3}
E_ABMGATE2    YINT3 0 VALUE {{IF(V(YINT2) > {VTHRESH} , 
+ {VDD},{VSS})}}
RINT2 YINT3 Y 1
CINT2 Y 0 250p
.ENDS BUF_DELAY_BASIC_GEN
*$
.SUBCKT BUF_BASIC_GEN A  Y PARAMS: VDD=1 VSS=0 VTHRESH=0.5 
E_ABMGATE    YINT 0 VALUE {{IF(V(A) > {VTHRESH} , 
+ {VDD},{VSS})}}
RINT YINT Y 1
CINT Y 0 250p
.ENDS BUF_BASIC_GEN
*$
.SUBCKT SRLATCHSHP_BASIC_GEN S R Q QB PARAMS: VDD=1 VSS=0 VTHRESH=0.5 
GQ 0 Qint VALUE = {IF(V(S) > {VTHRESH},5,IF(V(R)>{VTHRESH},-5, 0))}
CQint Qint 0 250p
RQint Qint 0 1000MEG
D_D10 Qint MY5 D_D1
V1 MY5 0 {VDD}
D_D11 MYVSS Qint D_D1
V2 MYVSS 0 {VSS} 
EQ Qqq 0 Qint 0 1
X3 Qqq Qqqd1 BUF_BASIC_GEN PARAMS: VDD={VDD} VSS={VSS} VTHRESH={VTHRESH}
RQq Qqqd1 Q 1
EQb Qbr 0 VALUE = {IF( V(Q) > {VTHRESH}, {VSS},{VDD})}
RQb Qbr QB 1 
Cdummy1 Q 0 250p 
Cdummy2 QB 0 250p 
.IC V(Qint) {VSS}
.ENDS SRLATCHSHP_BASIC_GEN
*$									 
.SUBCKT SRLATCHRHP_BASIC_GEN S R Q QB PARAMS: VDD=1 VSS=0 VTHRESH=0.5 
GQ 0 Qint VALUE = {IF(V(R) > {VTHRESH},-5,IF(V(S)>{VTHRESH},5, 0))}
CQint Qint 0 250p
RQint Qint 0 1000MEG
D_D10 Qint MY5 D_D1
V1 MY5 0 {VDD}
D_D11 MYVSS Qint D_D1
V2 MYVSS 0 {VSS} 
EQ Qqq 0 Qint 0 1
X3 Qqq Qqqd1 BUF_BASIC_GEN PARAMS: VDD={VDD} VSS={VSS} VTHRESH={VTHRESH}
RQq Qqqd1 Q 1
EQb Qbr 0 VALUE = {IF( V(Q) > {VTHRESH}, {VSS},{VDD})}
RQb Qbr QB 1 
Cdummy1 Q 0 250p 
Cdummy2 QB 0 250p
.IC V(Qint) {VSS}
.ENDS SRLATCHRHP_BASIC_GEN
*$																								  
.SUBCKT SBRBLATCHRHP_BASIC_GEN SB RB Q QB PARAMS: VDD=1 VSS=0 VTHRESH=0.5 
GQ 0 Qint VALUE = {IF(V(RB) < {VTHRESH},-5,IF(V(SB) < {VTHRESH},5, 0))}
CQint Qint 0 250p
RQint Qint 0 1000MEG
D_D10 Qint MY5 D_D1
V1 MY5 0 {VDD}
D_D11 MYVSS Qint D_D1
V2 MYVSS 0 {VSS} 
EQ Qqq 0 Qint 0 1
X3 Qqq Qqqd1 BUF_BASIC_GEN PARAMS: VDD={VDD} VSS={VSS} VTHRESH={VTHRESH}
RQq Qqqd1 Q 1
EQb Qbr 0 VALUE = {IF( V(Q) > {VTHRESH}, {VSS},{VDD})}
RQb Qbr QB 1 
.IC V(Qint) {VSS}
.ENDS SBRBLATCHRHP_BASIC_GEN
*$																								  
.SUBCKT SBRBLATCHSHP_BASIC_GEN SB RB Q QB PARAMS: VDD=1 VSS=0 VTHRESH=0.5 
GQ 0 Qint VALUE = {IF(V(SB) < {VTHRESH},5,IF(V(RB) < {VTHRESH},-5, 0))}
CQint Qint 0 250p
RQint Qint 0 1000MEG
D_D10 Qint MY5 D_D1
V1 MY5 0 {VDD}
D_D11 MYVSS Qint D_D1
V2 MYVSS 0 {VSS} 
EQ Qqq 0 Qint 0 1
X3 Qqq Qqqd1 BUF_BASIC_GEN PARAMS: VDD={VDD} VSS={VSS} VTHRESH={VTHRESH}
RQq Qqqd1 Q 1
EQb Qbr 0 VALUE = {IF( V(Q) > {VTHRESH}, {VSS},{VDD})}
RQb Qbr QB 1 
.IC V(Qint) {VSS}
.ENDS SBRBLATCHSHP_BASIC_GEN
*$
.SUBCKT DFFSBRB_SHPBASIC_GEN Q QB CLK D RB SB PARAMS: VDD=1 VSS=0 VTHRESH=0.5 															 
X1 CLK CLKdel INV_DELAY_BASIC_GEN PARAMS: VDD={VDD} VSS={VSS} VTHRESH={VTHRESH} DELAY = 15n
X2 CLK CLKdel CLKint AND2_BASIC_GEN PARAMS: VDD={VDD} VSS={VSS} VTHRESH={VTHRESH}
GQ 0 Qint VALUE = {IF(V(SB) < {VTHRESH},5,IF(V(RB)<{VTHRESH},-5, IF(V(CLKint)> {VTHRESH}, 
+ IF(V(D)> {VTHRESH},5,-5),0)))}
CQint Qint 0 250p
RQint Qint 0 1000MEG
D_D10 Qint MY5 D_D1
V1 MY5 0 {VDD}
D_D11 MYVSS Qint D_D1
V2 MYVSS 0 {VSS} 
EQ Qqq 0 Qint 0 1
X3 Qqq Qqqd1 BUF_DELAY_BASIC_GEN PARAMS: VDD={VDD} VSS={VSS} VTHRESH={VTHRESH} DELAY = 20n
RQq Qqqd1 Q 1
EQb Qbr 0 VALUE = {IF( V(Q) > {VTHRESH}, {VSS},{VDD})}
RQb Qbr Qb 1 
Cdummy1 Q 0 250pF 
Cdummy2 QB 0 250pF 
.IC V(Qint) {VSS}
.ENDS DFFSBRB_SHPBASIC_GEN
*$
.SUBCKT DFFSR_SHPBASIC_GEN Q QB CLK D R S PARAMS: VDD=1 VSS=0 VTHRESH=0.5 														 
X1 CLK CLKdel INV_DELAY_BASIC_GEN PARAMS: VDD={VDD} VSS={VSS} VTHRESH={VTHRESH} DELAY = 15n
X2 CLK CLKdel CLKint AND2_BASIC_GEN PARAMS: VDD={VDD} VSS={VSS} VTHRESH={VTHRESH} 
GQ 0 Qint VALUE = {IF(V(S) > {VTHRESH},5,IF(V(R) > {VTHRESH},-5, IF(V(CLKint)> {VTHRESH}, 
+ IF(V(D)> {VTHRESH},5,-5),0)))}
CQint Qint 0 250p
RQint Qint 0 1000MEG
D_D10 Qint MY5 D_D1
V1 MY5 0 {VDD}
D_D11 MYVSS Qint D_D1
V2 MYVSS 0 {VSS} 
EQ Qqq 0 Qint 0 1
X3 Qqq Qqqd1 BUF_DELAY_BASIC_GEN PARAMS: VDD=1 VSS=0 VTHRESH=0.5 DELAY = 20n
RQq Qqqd1 Q 1
EQb Qbr 0 VALUE = {IF( V(Q) > {VTHRESH}, {VSS},{VDD})}
RQb Qbr Qb 1 
Cdummy1 Q 0 250pF 
Cdummy2 QB 0 250pF 
.IC V(Qint) {VSS}
.ENDS DFFSR_SHPBASIC_GEN
*$
.SUBCKT DFFSBRB_RHPBASIC_GEN Q QB CLK D RB SB PARAMS: VDD=1 VSS=0 VTHRESH=0.5 														 
X1 CLK CLKdel INV_DELAY_BASIC_GEN PARAMS: VDD={VDD} VSS={VSS} VTHRESH={VTHRESH} DELAY = 15n
X2 CLK CLKdel CLKint AND2_BASIC_GEN PARAMS: VDD={VDD} VSS={VSS} VTHRESH={VTHRESH} 
GQ 0 Qint VALUE = {IF(V(RB) < {VTHRESH},-5,IF(V(SB)< {VTHRESH},5, IF(V(CLKint)> {VTHRESH}, 
+ IF(V(D)> {VTHRESH},5,-5),0)))}
CQint Qint 0 250p
RQint Qint 0 1000MEG
D_D10 Qint MY5 D_D1
V1 MY5 0 5
D_D11 0 Qint D_D1 
EQ Qqq 0 Qint 0 1
X3 Qqq Qqqd1 BUF_DELAY_BASIC_GEN PARAMS: VDD={VDD} VSS={VSS} VTHRESH={VTHRESH} DELAY = 20n
RQq Qqqd1 Q 1
EQb Qbr 0 VALUE = {IF( V(Q) > {VTHRESH}, {VSS},{VDD})}
RQb Qbr Qb 1 
Cdummy1 Q 0 250pF 
Cdummy2 QB 0 250pF 
.IC V(Qint) {VSS}
.ENDS DFFSBRB_RHPBASIC_GEN
*$
.SUBCKT DFFSR_RHPBASIC_GEN Q QB CLK D R S PARAMS: VDD=1 VSS=0 VTHRESH=0.5 											 
X1 CLK CLKdel INV_DELAY_BASIC_GEN PARAMS: VDD={VDD} VSS={VSS} VTHRESH={VTHRESH} DELAY = 2n
X2 CLK CLKdel CLKint AND2_BASIC_GEN PARAMS: VDD={VDD} VSS={VSS} VTHRESH={VTHRESH}  
GQ 0 Qint VALUE = {IF(V(R) > {VTHRESH},-5,IF(V(S) > {VTHRESH},5, IF(V(CLKint)> {VTHRESH}, 
+ IF(V(D)> {VTHRESH},5,-5),0)))}
CQint Qint 0 1n
RQint Qint 0 1000MEG
D_D10 Qint MY5 D_D1
V1 MY5 0 {VDD}
D_D11 MYVSS Qint D_D1
V2 MYVSS 0 {VSS} 
EQ Qqq 0 Qint 0 1
X3 Qqq Qqqd1 BUF_DELAY_BASIC_GEN PARAMS: VDD={VDD} VSS={VSS} VTHRESH={VTHRESH} DELAY = 20n
RQq Qqqd1 Q 1
EQb Qbr 0 VALUE = {IF( V(Q) > {VTHRESH}, {VSS},{VDD})}
RQb Qbr Qb 1 
Cdummy1 Q 0 1nF 
Cdummy2 QB 0 1nF 
.IC V(Qint) {VSS}
.ENDS DFFSR_RHPBASIC_GEN
*$				  
.SUBCKT MONOPOS_PS in Q Qn PARAMS: PW=1u 						 
VS VSUP 0 DC 1
GIN VSUP YA VALUE={IF(V(IN)>0.5, V(VSUP)/1000K, 0)}
GDIS YA 0 VALUE={IF(V(IN)>0.5,0, V(YA)/1m)}
CIN YA 0 250p IC=0
RIN YA 0 1e11
EABM1 YTD 0 VALUE={IF(V(YA)> {PW*1000}, 1, 0)}
RYTD YTD 0 1e11
EXOR P 0 VALUE={IF(V(YTD) > 0.5 ^ V(IN) > .5, 1, 0)}
ROUTpp2 P 0 1e11
EAND1 Q1 0 VALUE={ IF(V(P)>0.5 & V(IN)>0.5, 1, 0)}
Ro1 Q1 Q 1m
Co1 Q 0 1p
ROUT2 Q 0 1e11
EAND2 Qn1 0 VALUE={ IF(V(Q)>0.5, 0, 1)}
Ro2 Qn1 Qn 1m
Co2 Qn 0 1p
ROUT4 Qn 0 1e11
.ENDS MONOPOS_PS
*$
.SUBCKT CESR IN OUT
+ PARAMS:  C=100u ESR=0.01 X=1 IC=0 ESL=0
C	IN 1  {C*X} IC={IC}
RESR	1 OUT {ESR/X}	   
.ENDS CESR
*$
.SUBCKT LDCR IN OUT
+ PARAMs:  L=1u DCR=0.01 IC=0
L	IN 1  {L} IC={IC}
RDCR	1 OUT {DCR}
.ENDS LDCR
*$