* PSpice Model Editor - Version 16.2.0
*$
* TPS65580
*****************************************************************************
*  (C) Copyright 2013 Texas Instruments Incorporated. All rights reserved.
*****************************************************************************
** This model is designed as an aid for customers of Texas Instruments.
** TI and its licensors and suppliers make no warranties, either expressed
** or implied, with respect to this model, including the warranties of 
** merchantability or fitness for a particular purpose.  The model is
** provided solely on an "as is" basis.  The entire risk as to its quality
** and performance is with the customer
*****************************************************************************
*
** Released by: WEBENCH(R) Design Center, Texas Instruments Inc.
* Part: TPS65580
* Date: 13SEP2013
* Model Type: TRANSIENT
* Simulator: PSPICE
* Simulator Version: 16.2.001P
* EVM Order Number: TPS65580EVM 
* Datasheet: SLVSC29 AUG 20013
*
* Model Version: Final 1.00
*
*****************************************************************************
*
* Updates:
*
* Final 1.00
* Release to Web.
*
*****************************************************************************
.subckt TPS65580_TRANS VREG5 PWPD VIN1 VIN2 VBST1 VBST2 VBST3 SW1 SW2 SW3
+ PWRGD PGND1 PGND2 PGND3 EN1 EN2 EN3 FB1 FB2 FB3 GND PARAMS: fastss=1
E_CH1_U5_ABM187         CH1_U5_CMP2 0 VALUE {
+  if(V(CLK4_BAR)<0.5,1,if(V(CLK1_BAR)>0.5,0,V(CH1_U5_PRE_CMP2)))    }
R_CH1_U5_R31         0 CH1_U5_N16842435  8.4k TC=0,0 
R_CH1_U5_R18         CH1_U5_DUTY_RAMP CH1_U5_N16836105  1.58Meg  
E_CH1_U5_ABM186         CH1_U5_CMP1 0 VALUE {
+  if(V(CLK1)<0.5,1,if(V(CLK4)>0.5,0,V(CH1_U5_PRE_CMP1)))    }
R_CH1_U5_R29         0 CH1_U5_VINJFB_T  8.4k TC=0,0 
X_CH1_U5_U671         CH1_U5_COMP_OUT CH1_PWM_CLK INV_BASIC_GEN PARAMS: VDD=1
+  VSS=0 VTHRESH=500E-3
X_CH1_U5_U670         CH1_U5_N16845769 CH1_U5_COMP_OUT BUF_DELAY_BASIC_GEN
+  PARAMS: VDD=1 VSS=0 VTHRESH=0.5 DELAY=5n
G_CH1_U5_ABMII2         CH1_U5_N16840126 CH1_U5_N16842435 VALUE {
+  if(V(CH1_U5_COMP_OUT) < 0.5, 10u,0)    }
V_CH1_U5_V15         CH1_U5_N16840126 0 5
R_CH1_U5_R19         CH1_U5_N16836105 CH1_DUTY_AVE  1.58Meg  
R_CH1_U5_R32         0 CH1_U5_REF_INT2  1e8 TC=0,0 
R_CH1_U5_R34         0 CH1_U5_PRE_CMP2  1e8 TC=0,0 
G_CH1_U5_ABMII3         CH1_U5_N16840126 CH1_U5_N16842435 VALUE { if(V(SDWN1) >
+  0.5, -5u,0)    }
V_CH1_U5_V12         CH1_U5_N16840054 0 5
I_CH1_U5_I5         CH1_U5_N16840126 CH1_U5_N16842435 DC 5u  
R_CH1_U5_R16         CH1_U5_DUTY_RAMP CH1_U5_N16836037  200k  
C_CH1_U5_C18         0 CH1_DUTY_AVE  5p  
I_CH1_U5_I3         CH1_U5_N16840054 CH1_U5_VINJFB_T DC 5u  
E_CH1_U5_E7         CH1_U5_PRE_CMP1 CH1_U5_PRE_CMP2 CH1_U5_V_INJFB_TOP
+  CH1_U5_V_INJREF_TOP 5
E_CH1_U5_ABM184         CH1_U5_V_INJFB_TOP 0 VALUE {
+  V(CH1_U5_VINJFB_T)+V(CH1_U5_FB_INT2)    }
R_CH1_U5_R17         0 CH1_U5_DUTY_RAMP  100k  
X_CH1_U5_D19         CH1_U5_VINJFB_T CH1_U5_N16840054 d_d1 PARAMS: 
E_CH1_U5_ABM188         CH1_U5_N16847409 0 VALUE {
+  if(V(CH1_DUTY_AVE)/1.667<0.3,0.05m-0.035m/0.3*V(CH1_DUTY_AVE)/1.667  
+  ,if(V(CH1_DUTY_AVE)/1.667>0.7,0.015m+0.035m/0.3*(V(CH1_DUTY_AVE)
+/1.667-0.7),0.015m))}
R_CH1_U5_R23         0 CH1_PWM_CLK  1e8 TC=0,0 
E_CH1_U5_E5         CH1_U5_FB_INT2 CH1_U5_REF_INT2 FB1 VREF_GM1 3.3
E_CH1_U5_ABM185         CH1_U5_V_INJREF_TOP 0 VALUE {
+  V(CH1_U5_N16842435)+V(CH1_U5_REF_INT2)    }
E_CH1_U5_ABM191         CH1_U5_N16845769 0 VALUE {
+  if(V(CH1_U5_CMP1)>V(CH1_U5_CMP2),1,0)    }
R_CH1_U5_R33         0 CH1_U5_FB_INT2  1e8 TC=0,0 
R_CH1_U5_R35         0 CH1_U5_PRE_CMP1  1e8 TC=0,0 
E_CH1_U5_ABM181         CH1_U5_N16836037 0 VALUE { (V(CH1_HDRVIN) * 5)    }
C_CH1_U5_C16         0 CH1_U5_DUTY_RAMP  21p  
G_CH1_U5_ABM3I1         CH1_U5_N16836037 CH1_U5_VINJFB_T VALUE {
+  (V(CH1_U5_DUTY_RAMP)-V(CH1_DUTY_AVE))*V(CH1_U5_N16847409)    }
R_CH1_U5_R24         0 CH1_U5_COMP_OUT  1e8 TC=0,0 
X_CH1_U5_D20         CH1_U5_N16842435 CH1_U5_N16840126 d_d1 PARAMS: 
C_CH1_U5_C17         0 CH1_U5_N16836105  5p  
X_CH1_U6_U822         CH1_PWM_CLK CH1_U6_N16497188 INV_DELAY_BASIC_GEN PARAMS:
+  VDD=1 VSS=0 VTHRESH=0.5 DELAY=15n
R_CH1_U6_R272         CH1_U6_N16489522 CH1_U6_INDELAYED1  10k  
X_CH1_U6_U824         CH1_U6_N16489522 CH1_U6_INDELAYED1 CH1_PWM_CLK
+  CH1_PWM_FINAL OR3_BASIC_GEN PARAMS: VDD=1 VSS=0 VTHRESH=500E-3
X_CH1_U6_U823         CH1_U6_N16497188 CH1_PWM_CLK CH1_U6_N16489522
+  AND2_BASIC_GEN PARAMS: VDD=1 VSS=0 VTHRESH=500E-3
X_CH1_U6_U620         CH1_U6_N16489522 CH1_U6_INDELAYED1 d_d PARAMS:
C_CH1_U6_C172         0 CH1_U6_INDELAYED1  10p  
X_CH1_U7_U632         CH1_U7_SDWN_N CH1_U7_N16853561 CH1_U7_N16854440
+  CH1_U7_N16854591 CH1_HDRVIN AND4_BASIC_GEN PARAMS: VDD=1 VSS=0 VTHRESH=500E-3
X_CH1_U7_U857         OVP1 CH1_U7_N16877005 INV_BASIC_GEN PARAMS: VDD=1 VSS=0
+  VTHRESH=500E-3
X_CH1_U7_U859         CH1_U7_MAXON_COUNTUP CH1_U7_PWM_FINAL_NEW
+  CH1_U7_N16877931 AND2_BASIC_GEN PARAMS: VDD=1 VSS=0 VTHRESH=500E-3
X_CH1_U7_U676         CH1_U7_N16867475 CH1_U7_N16867498 OCLMODE1
+  CH1_U7_N16867782 SRLATCHRHP_BASIC_GEN PARAMS: VDD=1 VSS=0 VTHRESH=0.5
X_CH1_U7_U623         CH1_U7_N16854604 CH1_U7_SDWN_N CH1_U7_BOOT_ON
+  AND2_BASIC_GEN PARAMS: VDD=1 VSS=0 VTHRESH=500E-3
X_CH1_U7_S3    CH1_U7_N16854170 0 CH1_U7_HDRV SW1 Driver_CH1_U7_S3 
X_CH1_U7_U825         UVP1 CH1_U7_N16854591 INV_BASIC_GEN PARAMS: VDD=1 VSS=0
+  VTHRESH=500E-3
X_CH1_U7_U861         CH1_U7_N16877931 CH1_U7_MAXON_SHOT INV_BASIC_GEN PARAMS:
+  VDD=1 VSS=0 VTHRESH=500E-3
X_CH1_U7_U840         OCLMODE1 CH1_U7_N16871777 INV_BASIC_GEN PARAMS: VDD=1
+  VSS=0 VTHRESH=500E-3
X_CH1_U7_D19         CH1_U7_MAXON_SLOPE CH1_U7_N16886188 d_d1 PARAMS: 
R_CH1_U7_R245         0 VBST1  10MEG  
X_CH1_U7_U618         CH1_U7_N16854318 CH1_U7_N16854314 CH1_U7_N16854359
+  AND2_BASIC_GEN PARAMS: VDD=1 VSS=0 VTHRESH=500E-3
X_CH1_U7_U841         CH1_U7_MINOFF CH1_U7_N16877990 CH1_U7_N16871777
+  CH1_U7_N16870500 CH1_U7_N16871890 AND4_BASIC_GEN PARAMS: VDD=1 VSS=0
+  VTHRESH=500E-3
X_CH1_U7_S36    CH1_U7_N16886782 0 CH1_U7_MAXON_SLOPE 0 Driver_CH1_U7_S36 
X_CH1_U7_U862         CH1_U7_ZEROCROSS CH1_U7_N16876943 INV_BASIC_GEN PARAMS:
+  VDD=1 VSS=0 VTHRESH=500E-3
X_CH1_U7_U834         CH1_U7_OCDETECTION CH1_U7_N16870500 INV_BASIC_GEN PARAMS:
+  VDD=1 VSS=0 VTHRESH=500E-3
X_CH1_U7_U611         CH1_HDRVIN CH1_U7_N16854266 BUF_DELAY_BASIC_GEN PARAMS:
+  VDD=1 VSS=0 VTHRESH=0.5 DELAY=20n
X_CH1_U7_U853         CH1_U7_N16876214 CH1_U7_N16875744 CH1_U7_N16876316
+  CH1_U7_ZEROCROSS SRLATCHRHP_BASIC_GEN PARAMS: VDD=1 VSS=0 VTHRESH=0.5
X_CH1_U7_U855         CH1_U7_N16876979 CH1_U7_N16876943 CH1_U7_N16876915
+  OR2_BASIC_GEN PARAMS: VDD=1 VSS=0 VTHRESH=500E-3
E_CH1_U7_ABM171         CH1_U7_OCDETECTION 0 VALUE { if(
+  V(CH1_U7_N16870787)<V(N16831393),1,0 )    }
X_CH1_U7_U629         CH1_U7_PWM_FINAL_NEW CH1_U7_N16853561 BUF_DELAY_BASIC_GEN
+  PARAMS: VDD=1 VSS=0 VTHRESH=0.5 DELAY=20n
X_CH1_U7_U850         CH1_U7_N16869087 CH1_U7_N16872649 INV_BASIC_GEN PARAMS:
+  VDD=1 VSS=0 VTHRESH=500E-3
X_CH1_U7_U864         OVP1 CH1_U7_N16880653 INV_BASIC_GEN PARAMS: VDD=1 VSS=0
+  VTHRESH=500E-3
X_CH1_U7_S5    CH1_U7_N16854359 0 CH1_U7_LDRV 0 Driver_CH1_U7_S5 
X_CH1_U7_U865         CH1_U7_N16885336 CH1_U7_N16885357 INV_BASIC_GEN PARAMS:
+  VDD=1 VSS=0 VTHRESH=500E-3
X_CH1_U7_U624         CH1_HDRVIN CH1_U7_N16854604 INV_BASIC_GEN PARAMS: VDD=1
+  VSS=0 VTHRESH=500E-3
X_CH1_U7_S34    CH1_U7_BOOT_ON 0 VBST1 CH1_U7_N16854240 Driver_CH1_U7_S34 
X_CH1_U7_U826         CH1_U7_PWM_FINAL_NEW CH1_U7_N16854506 INV_BASIC_GEN
+  PARAMS: VDD=1 VSS=0 VTHRESH=500E-3
C_CH1_U7_C78         CH1_U7_N16854459 0  18n  
X_CH1_U7_U829         CH1_U7_OCDETECTION CH1_U7_N16872112 INV_BASIC_GEN PARAMS:
+  VDD=1 VSS=0 VTHRESH=500E-3
X_CH1_U7_U827         CH1_U7_OCDETECTION CH1_PWM_CLK CH1_U7_N16867475
+  AND2_BASIC_GEN PARAMS: VDD=1 VSS=0 VTHRESH=500E-3
E_CH1_U7_ABM173         CH1_U7_N16870092 0 VALUE { if(V(CH1_DUTY_AVE)>1.333,4.4
+   
+ ,if(V(CH1_DUTY_AVE)<0.333,1  
+ ,1+3.4*(V(CH1_DUTY_AVE)-0.333)))  }
X_CH1_U7_U846         CH1_U7_N16872424 CH1_U7_N16869087 CH1_U7_N16869662
+  CH1_U7_N16868525 SRLATCHRHP_BASIC_GEN PARAMS: VDD=1 VSS=0 VTHRESH=0.5
X_CH1_U7_U614         CH1_U7_LDRVIN CH1_U7_N16854303 CH1_U7_N16854350
+  AND2_BASIC_GEN PARAMS: VDD=1 VSS=0 VTHRESH=500E-3
V_CH1_U7_V12         CH1_U7_N16886188 0 2
E_CH1_U7_ABM224         CH1_U7_MAXON_COUNTUP 0 VALUE { IF(V(CH1_U7_MAXON_SLOPE)
+   >1, 1,0)    }
C_CH1_U7_C19         0 CH1_U7_MAXON_SLOPE  20p IC=0 
X_CH1_U7_S30    CH1_U7_HDRV SW1 VIN SW1 Driver_CH1_U7_S30 
X_CH1_U7_U849         OCLMODE1 CH1_U7_N16872112 CH1_U7_N16872541
+  CH1_U7_N16872424 AND3_BASIC_GEN PARAMS: VDD=1 VSS=0 VTHRESH=500E-3
R_CH1_U7_R244         CH1_U7_N16854534 CH1_U7_BOOT_UVLO  1  
X_CH1_U7_U845         OCLMODE1 CH1_U7_OCLSHOT CH1_U7_N16872223 AND2_BASIC_GEN
+  PARAMS: VDD=1 VSS=0 VTHRESH=500E-3
X_CH1_U7_D14         CH1_U7_N16854413 SW1 d_d1 PARAMS: 
E_CH1_U7_ABM178         CH1_U7_N16877042 0 VALUE { if(FCCM==1,1,0)    }
X_CH1_U7_U828         CH1_PWM_CLK CH1_U7_N16867498 INV_BASIC_GEN PARAMS: VDD=1
+  VSS=0 VTHRESH=500E-3
X_CH1_U7_U869         CH1_U7_PWM_FINAL_NEW CH1_U7_N16886779 INV_BASIC_GEN
+  PARAMS: VDD=1 VSS=0 VTHRESH=500E-3
X_CH1_U7_S37    SDWN1 0 SW1 0 Driver_CH1_U7_S37 
I_CH1_U7_I3         CH1_U7_N16886188 CH1_U7_MAXON_SLOPE DC 10u  
E_CH1_U7_ABM79         CH1_U7_N16854463 0 VALUE { {IF((V(CH1_U7_HDRV) - V(SW1))
+  > 1.1  
+ ,0,1)}   }
X_CH1_U7_U835         CH1_U7_N16871890 CH1_U7_N16872223 CH1_U7_PWM_FINAL_NEW
+  OR2_BASIC_GEN PARAMS: VDD=1 VSS=0 VTHRESH=500E-3
X_CH1_U7_S31    CH1_U7_LDRV 0 SW1 CH1_U7_N16854413 Driver_CH1_U7_S31 
C_CH1_U7_C77         CH1_U7_N16854440 0  18n  
E_CH1_U7_ABM172         CH1_U7_N16869087 0 VALUE { if(
+  V(CH1_U7_N16868726)>V(CH1_U7_N16870092),1,0 )    }
R_CH1_U7_R144         CH1_U7_N16854463 CH1_U7_N16854459  1  
X_CH1_U7_U870         SDWN1 CH1_U7_N16886779 CH1_U7_N16886782 OR2_BASIC_GEN
+  PARAMS: VDD=1 VSS=0 VTHRESH=500E-3
E_CH1_U7_ABM177         CH1_U7_N16875744 0 VALUE { if(V(CH1_U7_LDRV)<2.5,0  
+ ,if(V(CH1_U7_CURSNS)>0,1,0))   }
E_CH1_U7_ABM167         CH1_U7_N16854534 0 VALUE { {IF((V(VBST1) - V(SW1)) <
+  2.2,0,1)}    }
X_CH1_U7_U616         CH1_U7_LDRVIN CH1_U7_N16854314 INV_BASIC_GEN PARAMS:
+  VDD=1 VSS=0 VTHRESH=500E-3
X_CH1_U7_U851         CH1_U7_N16872598 CH1_U7_N16872541 INV_BASIC_GEN PARAMS:
+  VDD=1 VSS=0 VTHRESH=500E-3
X_CH1_U7_H2    CH1_U7_N16854413 PGND1 CH1_U7_CURSNS 0 Driver_CH1_U7_H2 
X_CH1_U7_U610         CH1_HDRVIN CH1_U7_N16854206 INV_BASIC_GEN PARAMS: VDD=1
+  VSS=0 VTHRESH=500E-3
X_CH1_U7_U832         OCLMODE1 CH1_U7_N16869662 CH1_U7_OCLSHOT AND2_BASIC_GEN
+  PARAMS: VDD=1 VSS=0 VTHRESH=500E-3
X_CH1_U7_S4    CH1_U7_N16854350 0 VREG5 CH1_U7_LDRV Driver_CH1_U7_S4 
X_CH1_U7_U613         SDWN1 CH1_U7_SDWN_N INV_BASIC_GEN PARAMS: VDD=1 VSS=0
+  VTHRESH=500E-3
C_CH1_U7_C140         0 CH1_U7_BOOT_UVLO  1n  
X_CH1_U7_S35    CH1_U7_N16868525 0 CH1_U7_N16868726 0 Driver_CH1_U7_S35 
R_CH1_U7_R247         0 CH1_U7_N16867782  1e8  
C_CH1_U7_C8         0 CH1_U7_N16868726  1.2p IC=0 
E_CH1_U7_ABM170         CH1_U7_N16854442 0 VALUE { {IF(V(CH1_U7_LDRV) >
+  1.1,0,1)}    }
G_CH1_U7_ABMII1         VREG5 CH1_U7_N16868726 VALUE { V(VIN) /2*1e-6    }
E_CH1_U7_ABM174         CH1_U7_N16870787 0 VALUE { if(
+  V(CH1_U7_LDRV)<2.5,0,V(CH1_U7_CURSNS))    }
X_CH1_U7_U612         CH1_U7_N16854206 CH1_U7_N16854278 BUF_DELAY_BASIC_GEN
+  PARAMS: VDD=1 VSS=0 VTHRESH=0.5 DELAY=20n
X_CH1_U7_U866         CH1_U7_N16885357 CH1_U7_PWM_FINAL_NEW CH1_U7_MINOFF
+  OR2_BASIC_GEN PARAMS: VDD=1 VSS=0 VTHRESH=500E-3
X_CH1_U7_U617         CH1_U7_N16854314 CH1_U7_N16854318 BUF_DELAY_BASIC_GEN
+  PARAMS: VDD=1 VSS=0 VTHRESH=0.5 DELAY=20n
X_CH1_U7_D15         CH1_U7_N16854240 VBST1 d_d1 PARAMS: 
X_CH1_U7_U625         CH1_U7_SDWN_N CH1_U7_PWML CH1_U7_N16854459
+  CH1_U7_N16876085 CH1_U7_N16853520 AND4_BASIC_GEN PARAMS: VDD=1 VSS=0
+  VTHRESH=500E-3
X_CH1_U7_U856         CH1_U7_N16877042 CH1_U7_N16877005 CH1_U7_N16876979
+  AND2_BASIC_GEN PARAMS: VDD=1 VSS=0 VTHRESH=500E-3
X_CH1_U7_U852         UVP1 CH1_U7_N16876085 INV_BASIC_GEN PARAMS: VDD=1 VSS=0
+  VTHRESH=500E-3
X_CH1_U7_S2    CH1_U7_N16854164 0 VBST1 CH1_U7_HDRV Driver_CH1_U7_S2 
X_CH1_U7_U609         CH1_U7_N16854278 CH1_U7_N16854206 CH1_U7_N16854170
+  AND2_BASIC_GEN PARAMS: VDD=1 VSS=0 VTHRESH=500E-3
X_CH1_U7_U628         CH1_U7_N16854506 CH1_U7_PWML BUF_DELAY_BASIC_GEN PARAMS:
+  VDD=1 VSS=0 VTHRESH=0.5 DELAY=20n
X_CH1_U7_U868         CH1_U7_MINOFF CH1_U7_N16876214 INV_BASIC_GEN PARAMS:
+  VDD=1 VSS=0 VTHRESH=500E-3
R_CH1_U7_R287         0 CH1_U7_N16876316  1e8  
X_CH1_U7_U863         CH1_U7_MAXON_SHOT CH1_PWM_FINAL CH1_U7_N16880653
+  CH1_U7_N16877990 AND3_BASIC_GEN PARAMS: VDD=1 VSS=0 VTHRESH=500E-3
X_CH1_U7_U615         CH1_U7_LDRVIN CH1_U7_N16854303 BUF_DELAY_BASIC_GEN
+  PARAMS: VDD=1 VSS=0 VTHRESH=0.5 DELAY=20n
R_CH1_U7_R143         CH1_U7_N16854442 CH1_U7_N16854440  1  
X_CH1_U7_U854         VIN CH1_U7_N16853520 CH1_U7_N16876915 CH1_U7_LDRVIN
+  AND3_BASIC_GEN PARAMS: VDD=1 VSS=0 VTHRESH=500E-3
X_CH1_U7_U848         CH1_U7_N16872649 CH1_U7_N16872598 one_shot_1 PARAMS: 
+  T=200  
X_CH1_U7_D13         SW1 VIN d_d1 PARAMS: 
X_CH1_U7_U867         CH1_U7_PWM_FINAL_NEW CH1_U7_N16885336 BUF_DELAY_BASIC_GEN
+  PARAMS: VDD=1 VSS=0 VTHRESH=0.5 DELAY=200n
X_CH1_U7_U608         CH1_HDRVIN CH1_U7_N16854266 CH1_U7_N16854164
+  AND2_BASIC_GEN PARAMS: VDD=1 VSS=0 VTHRESH=500E-3
V_CH1_U7_V13         CH1_U7_N16854240 0 5
V_V51         N16832127 GND -2.2
R_R18         VIN1 VIN  1m  
V_V50         N16832069 GND -3.5
X_OSC_U856         CLK2 CLK2_BAR INV_BASIC_GEN PARAMS: VDD=1 VSS=0
+  VTHRESH=500E-3
X_OSC_U875         OSC_N16749472 OSC_N16748402 CLK4 AND2_BASIC_GEN PARAMS:
+  VDD=1 VSS=0 VTHRESH=500E-3
X_OSC_U135         OSC_N167544850 OSC_N16741243 BUF_DELAY_BASIC_GEN PARAMS:
+  VDD=1 VSS=0 VTHRESH=0.5 DELAY=50n
X_OSC_U874         OSC_N16753162 OSC_N16748217 INV_BASIC_GEN PARAMS: VDD=1
+  VSS=0 VTHRESH=500E-3
X_OSC_U834         OSC_A0 OSC_A1B OSC_A2B OSC_N16742052 AND3_BASIC_GEN PARAMS:
+  VDD=1 VSS=0 VTHRESH=500E-3
X_OSC_U870         OSC_N16749552 OSC_N16748114 CLK3_BAR AND2_BASIC_GEN PARAMS:
+  VDD=1 VSS=0 VTHRESH=500E-3
X_OSC_U877         OSC_N16748217 OSC_N16748543 CLK2 AND2_BASIC_GEN PARAMS:
+  VDD=1 VSS=0 VTHRESH=500E-3
X_OSC_U880         OCLMODE2 OSC_N16753434 OSC_N16753162 OR2_BASIC_GEN PARAMS:
+  VDD=1 VSS=0 VTHRESH=500E-3
X_OSC_U846         OSC_N16742333 OSC_N167537630 INV_BASIC_GEN PARAMS: VDD=1
+  VSS=0 VTHRESH=500E-3
X_OSC_U883         SSEND2 OSC_N16753434 INV_BASIC_GEN PARAMS: VDD=1 VSS=0
+  VTHRESH=500E-3
X_OSC_U869         OSC_N16749472 OSC_N16747864 CLK1_BAR AND2_BASIC_GEN PARAMS:
+  VDD=1 VSS=0 VTHRESH=500E-3
X_OSC_U873         OSC_N16753067 OSC_N16749552 INV_BASIC_GEN PARAMS: VDD=1
+  VSS=0 VTHRESH=500E-3
X_OSC_U854         OSC_N16742741 OSC_N16742775 OSC_N16748196 AND2_BASIC_GEN
+  PARAMS: VDD=1 VSS=0 VTHRESH=500E-3
X_OSC_U862         OSC_N167534970 OSC_N16741850 BUF_DELAY_BASIC_GEN PARAMS:
+  VDD=1 VSS=0 VTHRESH=0.5 DELAY=50n
X_OSC_U857         CLK6 CLK6_BAR INV_BASIC_GEN PARAMS: VDD=1 VSS=0
+  VTHRESH=500E-3
X_OSC_U860         CLK5_BAR CLK5 INV_BASIC_GEN PARAMS: VDD=1 VSS=0
+  VTHRESH=500E-3
E_OSC_ABM1         OSC_CLK 0 VALUE { if( V(ENREG5) > 0.5,  
+ V(OSC_N16746206) ,0)   }
X_OSC_U882         SSEND3 OSC_N16753363 INV_BASIC_GEN PARAMS: VDD=1 VSS=0
+  VTHRESH=500E-3
X_OSC_U836         OSC_A0 OSC_A1 OSC_A2 OSC_N16742333 AND3_BASIC_GEN PARAMS:
+  VDD=1 VSS=0 VTHRESH=500E-3
X_OSC_U865         OSC_N167540190 OSC_N16742775 BUF_DELAY_BASIC_GEN PARAMS:
+  VDD=1 VSS=0 VTHRESH=0.5 DELAY=50n
X_OSC_U824         OSC_A2B OSC_A2B OSC_N15573868 AND2_BASIC_GEN PARAMS: VDD=1
+  VSS=0 VTHRESH=500E-3
X_OSC_U872         OSC_N16752942 OSC_N16749472 INV_BASIC_GEN PARAMS: VDD=1
+  VSS=0 VTHRESH=500E-3
X_OSC_U852         OSC_N16742741 OSC_N167540190 INV_BASIC_GEN PARAMS: VDD=1
+  VSS=0 VTHRESH=500E-3
V_OSC_V2         OSC_N15573882 0 1
X_OSC_U849         OSC_N16742536 OSC_N167539190 INV_BASIC_GEN PARAMS: VDD=1
+  VSS=0 VTHRESH=500E-3
X_OSC_U818         OSC_A1 OSC_A1B OSC_CLK OSC_N15573920 ENREG5 OSC_N15573882
+  DFFSBRB_RHPBASIC_GEN PARAMS: VDD=1 VSS=0 VTHRESH=500E-3
X_OSC_U864         OSC_N167539190 OSC_N16742570 BUF_DELAY_BASIC_GEN PARAMS:
+  VDD=1 VSS=0 VTHRESH=0.5 DELAY=50n
X_OSC_U843         OSC_N16742052 OSC_N167547350 INV_BASIC_GEN PARAMS: VDD=1
+  VSS=0 VTHRESH=500E-3
X_OSC_U828         OSC_A0B OSC_A1B OSC_A2B OSC_N16741146 AND3_BASIC_GEN PARAMS:
+  VDD=1 VSS=0 VTHRESH=500E-3
X_OSC_U879         OCLMODE3 OSC_N16753363 OSC_N16753067 OR2_BASIC_GEN PARAMS:
+  VDD=1 VSS=0 VTHRESH=500E-3
X_OSC_U845         OSC_N16742052 OSC_N16742086 OSC_N16747864 AND2_BASIC_GEN
+  PARAMS: VDD=1 VSS=0 VTHRESH=500E-3
X_OSC_U825         OSC_A0 OSC_A0 OSC_N15573920 AND2_BASIC_GEN PARAMS: VDD=1
+  VSS=0 VTHRESH=500E-3
X_OSC_U851         OSC_N16742536 OSC_N16742570 OSC_N16748402 AND2_BASIC_GEN
+  PARAMS: VDD=1 VSS=0 VTHRESH=500E-3
X_OSC_U826         OSC_A2 OSC_A2B OSC_CLK OSC_N16734807 ENREG5 OSC_N15573882
+  DFFSBRB_RHPBASIC_GEN PARAMS: VDD=1 VSS=0 VTHRESH=500E-3
X_OSC_U840         OSC_N16741816 OSC_N167534970 INV_BASIC_GEN PARAMS: VDD=1
+  VSS=0 VTHRESH=500E-3
X_OSC_U859         CLK4 CLK4_BAR INV_BASIC_GEN PARAMS: VDD=1 VSS=0
+  VTHRESH=500E-3
X_OSC_U876         OSC_N16749552 OSC_N16748455 CLK6 AND2_BASIC_GEN PARAMS:
+  VDD=1 VSS=0 VTHRESH=500E-3
X_OSC_U835         OSC_A0 OSC_A1 OSC_A2B OSC_N16741816 AND3_BASIC_GEN PARAMS:
+  VDD=1 VSS=0 VTHRESH=500E-3
X_OSC_U837         OSC_A0B OSC_A1 OSC_A2 OSC_N16742536 AND3_BASIC_GEN PARAMS:
+  VDD=1 VSS=0 VTHRESH=500E-3
X_OSC_U839         OSC_N16741146 OSC_N16741243 OSC_N16748455 AND2_BASIC_GEN
+  PARAMS: VDD=1 VSS=0 VTHRESH=500E-3
X_OSC_U817         OSC_A0 OSC_A0B OSC_CLK OSC_N15573868 ENREG5 OSC_N15573882
+  DFFSBRB_RHPBASIC_GEN PARAMS: VDD=1 VSS=0 VTHRESH=500E-3
X_OSC_U871         OSC_N16748217 OSC_N16748196 CLK5_BAR AND2_BASIC_GEN PARAMS:
+  VDD=1 VSS=0 VTHRESH=500E-3
X_OSC_U861         OSC_N167547350 OSC_N16742086 BUF_DELAY_BASIC_GEN PARAMS:
+  VDD=1 VSS=0 VTHRESH=0.5 DELAY=50n
V_OSC_V1         OSC_N16746206 0  
+PULSE 0 5 1u 10n 10n 30n .238u
X_OSC_U881         SSEND1 OSC_N16753285 INV_BASIC_GEN PARAMS: VDD=1 VSS=0
+  VTHRESH=500E-3
X_OSC_U855         CLK1_BAR CLK1 INV_BASIC_GEN PARAMS: VDD=1 VSS=0
+  VTHRESH=500E-3
X_OSC_U878         OCLMODE1 OSC_N16753285 OSC_N16752942 OR2_BASIC_GEN PARAMS:
+  VDD=1 VSS=0 VTHRESH=500E-3
X_OSC_U863         OSC_N167537630 OSC_N16742367 BUF_DELAY_BASIC_GEN PARAMS:
+  VDD=1 VSS=0 VTHRESH=0.5 DELAY=50n
X_OSC_U848         OSC_N16742333 OSC_N16742367 OSC_N16748114 AND2_BASIC_GEN
+  PARAMS: VDD=1 VSS=0 VTHRESH=500E-3
X_OSC_U827         OSC_A1 OSC_A1 OSC_N16734807 AND2_BASIC_GEN PARAMS: VDD=1
+  VSS=0 VTHRESH=500E-3
X_OSC_U842         OSC_N16741816 OSC_N16741850 OSC_N16748543 AND2_BASIC_GEN
+  PARAMS: VDD=1 VSS=0 VTHRESH=500E-3
X_OSC_U838         OSC_A0B OSC_A1B OSC_A2 OSC_N16742741 AND3_BASIC_GEN PARAMS:
+  VDD=1 VSS=0 VTHRESH=500E-3
X_OSC_U858         CLK3_BAR CLK3 INV_BASIC_GEN PARAMS: VDD=1 VSS=0
+  VTHRESH=500E-3
X_OSC_U628         OSC_N16741146 OSC_N167544850 INV_BASIC_GEN PARAMS: VDD=1
+  VSS=0 VTHRESH=500E-3
E_CH3_U5_ABM187         CH3_U5_CMP2 0 VALUE {
+  if(V(CLK6_BAR)<0.5,1,if(V(CLK3_BAR)>0.5,0,V(CH3_U5_PRE_CMP2)))    }
R_CH3_U5_R31         0 CH3_U5_N16842435  8.4k TC=0,0 
R_CH3_U5_R18         CH3_U5_DUTY_RAMP CH3_U5_N16836105  1.58Meg  
E_CH3_U5_ABM186         CH3_U5_CMP1 0 VALUE {
+  if(V(CLK3)<0.5,1,if(V(CLK6)>0.5,0,V(CH3_U5_PRE_CMP1)))    }
R_CH3_U5_R29         0 CH3_U5_VINJFB_T  8.4k TC=0,0 
X_CH3_U5_U671         CH3_U5_COMP_OUT CH3_PWM_CLK INV_BASIC_GEN PARAMS: VDD=1
+  VSS=0 VTHRESH=500E-3
X_CH3_U5_U670         CH3_U5_N16845769 CH3_U5_COMP_OUT BUF_DELAY_BASIC_GEN
+  PARAMS: VDD=1 VSS=0 VTHRESH=0.5 DELAY=5n
G_CH3_U5_ABMII2         CH3_U5_N16840126 CH3_U5_N16842435 VALUE {
+  if(V(CH3_U5_COMP_OUT) < 0.5, 10u,0)    }
V_CH3_U5_V15         CH3_U5_N16840126 0 5
R_CH3_U5_R19         CH3_U5_N16836105 CH3_DUTY_AVE  1.58Meg  
R_CH3_U5_R32         0 CH3_U5_REF_INT2  1e8 TC=0,0 
R_CH3_U5_R34         0 CH3_U5_PRE_CMP2  1e8 TC=0,0 
G_CH3_U5_ABMII3         CH3_U5_N16840126 CH3_U5_N16842435 VALUE { if(V(SDWN3) >
+  0.5, -5u,0)    }
V_CH3_U5_V12         CH3_U5_N16840054 0 5
I_CH3_U5_I5         CH3_U5_N16840126 CH3_U5_N16842435 DC 5u  
R_CH3_U5_R16         CH3_U5_DUTY_RAMP CH3_U5_N16836037  200k  
C_CH3_U5_C18         0 CH3_DUTY_AVE  5p  
I_CH3_U5_I3         CH3_U5_N16840054 CH3_U5_VINJFB_T DC 5u  
E_CH3_U5_E7         CH3_U5_PRE_CMP1 CH3_U5_PRE_CMP2 CH3_U5_V_INJFB_TOP
+  CH3_U5_V_INJREF_TOP 5
E_CH3_U5_ABM184         CH3_U5_V_INJFB_TOP 0 VALUE {
+  V(CH3_U5_VINJFB_T)+V(CH3_U5_FB_INT2)    }
R_CH3_U5_R17         0 CH3_U5_DUTY_RAMP  100k  
X_CH3_U5_D19         CH3_U5_VINJFB_T CH3_U5_N16840054 d_d1 PARAMS: 
E_CH3_U5_ABM188         CH3_U5_N16847409 0 VALUE {
+  if(V(CH3_DUTY_AVE)/1.667<0.3,0.05m-0.035m/0.3*V(CH3_DUTY_AVE)/1.667  
+  ,if(V(CH3_DUTY_AVE)/1.667>0.7,0.015m+0.035m/0.3*
+ (V(CH3_DUTY_AVE)/1.667-0.7),0.015m))   }
R_CH3_U5_R23         0 CH3_PWM_CLK  1e8 TC=0,0 
E_CH3_U5_E5         CH3_U5_FB_INT2 CH3_U5_REF_INT2 FB3 VREF_GM3 3.3
E_CH3_U5_ABM185         CH3_U5_V_INJREF_TOP 0 VALUE {
+  V(CH3_U5_N16842435)+V(CH3_U5_REF_INT2)    }
E_CH3_U5_ABM191         CH3_U5_N16845769 0 VALUE {
+  if(V(CH3_U5_CMP1)>V(CH3_U5_CMP2),1,0)    }
R_CH3_U5_R33         0 CH3_U5_FB_INT2  1e8 TC=0,0 
R_CH3_U5_R35         0 CH3_U5_PRE_CMP1  1e8 TC=0,0 
E_CH3_U5_ABM181         CH3_U5_N16836037 0 VALUE { (V(CH3_HDRVIN) * 5)    }
C_CH3_U5_C16         0 CH3_U5_DUTY_RAMP  21p  
G_CH3_U5_ABM3I1         CH3_U5_N16836037 CH3_U5_VINJFB_T VALUE {
+  (V(CH3_U5_DUTY_RAMP)-V(CH3_DUTY_AVE))*V(CH3_U5_N16847409)    }
R_CH3_U5_R24         0 CH3_U5_COMP_OUT  1e8 TC=0,0 
X_CH3_U5_D20         CH3_U5_N16842435 CH3_U5_N16840126 d_d1 PARAMS: 
C_CH3_U5_C17         0 CH3_U5_N16836105  5p  
X_CH3_U6_U822         CH3_PWM_CLK CH3_U6_N16497188 INV_DELAY_BASIC_GEN PARAMS:
+  VDD=1 VSS=0 VTHRESH=0.5 DELAY=15n
R_CH3_U6_R272         CH3_U6_N16489522 CH3_U6_INDELAYED1  10k  
X_CH3_U6_U824         CH3_U6_N16489522 CH3_U6_INDELAYED1 CH3_PWM_CLK
+  CH3_PWM_FINAL OR3_BASIC_GEN PARAMS: VDD=1 VSS=0 VTHRESH=500E-3
X_CH3_U6_U823         CH3_U6_N16497188 CH3_PWM_CLK CH3_U6_N16489522
+  AND2_BASIC_GEN PARAMS: VDD=1 VSS=0 VTHRESH=500E-3
X_CH3_U6_U620         CH3_U6_N16489522 CH3_U6_INDELAYED1 d_d PARAMS:
C_CH3_U6_C172         0 CH3_U6_INDELAYED1  10p  
X_CH3_U7_U632         CH3_U7_SDWN_N CH3_U7_N16853561 CH3_U7_N16854440
+  CH3_U7_N16854591 CH3_HDRVIN AND4_BASIC_GEN PARAMS: VDD=1 VSS=0 VTHRESH=500E-3
X_CH3_U7_U857         OVP3 CH3_U7_N16877005 INV_BASIC_GEN PARAMS: VDD=1 VSS=0
+  VTHRESH=500E-3
X_CH3_U7_U859         CH3_U7_MAXON_COUNTUP CH3_U7_PWM_FINAL_NEW
+  CH3_U7_N16877931 AND2_BASIC_GEN PARAMS: VDD=1 VSS=0 VTHRESH=500E-3
X_CH3_U7_U676         CH3_U7_N16867475 CH3_U7_N16867498 OCLMODE3
+  CH3_U7_N16867782 SRLATCHRHP_BASIC_GEN PARAMS: VDD=1 VSS=0 VTHRESH=0.5
X_CH3_U7_U623         CH3_U7_N16854604 CH3_U7_SDWN_N CH3_U7_BOOT_ON
+  AND2_BASIC_GEN PARAMS: VDD=1 VSS=0 VTHRESH=500E-3
X_CH3_U7_S3    CH3_U7_N16854170 0 CH3_U7_HDRV SW3 Driver_CH3_U7_S3 
X_CH3_U7_U825         UVP3 CH3_U7_N16854591 INV_BASIC_GEN PARAMS: VDD=1 VSS=0
+  VTHRESH=500E-3
X_CH3_U7_U861         CH3_U7_N16877931 CH3_U7_MAXON_SHOT INV_BASIC_GEN PARAMS:
+  VDD=1 VSS=0 VTHRESH=500E-3
X_CH3_U7_U840         OCLMODE3 CH3_U7_N16871777 INV_BASIC_GEN PARAMS: VDD=1
+  VSS=0 VTHRESH=500E-3
X_CH3_U7_D19         CH3_U7_MAXON_SLOPE CH3_U7_N16886188 d_d1 PARAMS: 
R_CH3_U7_R245         0 VBST3  10MEG  
X_CH3_U7_U618         CH3_U7_N16854318 CH3_U7_N16854314 CH3_U7_N16854359
+  AND2_BASIC_GEN PARAMS: VDD=1 VSS=0 VTHRESH=500E-3
X_CH3_U7_U841         CH3_U7_MINOFF CH3_U7_N16877990 CH3_U7_N16871777
+  CH3_U7_N16870500 CH3_U7_N16871890 AND4_BASIC_GEN PARAMS: VDD=1 VSS=0
+  VTHRESH=500E-3
X_CH3_U7_S36    CH3_U7_N16886782 0 CH3_U7_MAXON_SLOPE 0 Driver_CH3_U7_S36 
X_CH3_U7_U862         CH3_U7_ZEROCROSS CH3_U7_N16876943 INV_BASIC_GEN PARAMS:
+  VDD=1 VSS=0 VTHRESH=500E-3
X_CH3_U7_U834         CH3_U7_OCDETECTION CH3_U7_N16870500 INV_BASIC_GEN PARAMS:
+  VDD=1 VSS=0 VTHRESH=500E-3
X_CH3_U7_U611         CH3_HDRVIN CH3_U7_N16854266 BUF_DELAY_BASIC_GEN PARAMS:
+  VDD=1 VSS=0 VTHRESH=0.5 DELAY=20n
X_CH3_U7_U853         CH3_U7_N16876214 CH3_U7_N16875744 CH3_U7_N16876316
+  CH3_U7_ZEROCROSS SRLATCHRHP_BASIC_GEN PARAMS: VDD=1 VSS=0 VTHRESH=0.5
X_CH3_U7_U855         CH3_U7_N16876979 CH3_U7_N16876943 CH3_U7_N16876915
+  OR2_BASIC_GEN PARAMS: VDD=1 VSS=0 VTHRESH=500E-3
E_CH3_U7_ABM171         CH3_U7_OCDETECTION 0 VALUE { if(
+  V(CH3_U7_N16870787)<V(N16832127),1,0 )    }
X_CH3_U7_U629         CH3_U7_PWM_FINAL_NEW CH3_U7_N16853561 BUF_DELAY_BASIC_GEN
+  PARAMS: VDD=1 VSS=0 VTHRESH=0.5 DELAY=20n
X_CH3_U7_U850         CH3_U7_N16869087 CH3_U7_N16872649 INV_BASIC_GEN PARAMS:
+  VDD=1 VSS=0 VTHRESH=500E-3
X_CH3_U7_U864         OVP3 CH3_U7_N16880653 INV_BASIC_GEN PARAMS: VDD=1 VSS=0
+  VTHRESH=500E-3
X_CH3_U7_S5    CH3_U7_N16854359 0 CH3_U7_LDRV 0 Driver_CH3_U7_S5 
X_CH3_U7_U865         CH3_U7_N16885336 CH3_U7_N16885357 INV_BASIC_GEN PARAMS:
+  VDD=1 VSS=0 VTHRESH=500E-3
X_CH3_U7_U624         CH3_HDRVIN CH3_U7_N16854604 INV_BASIC_GEN PARAMS: VDD=1
+  VSS=0 VTHRESH=500E-3
X_CH3_U7_S34    CH3_U7_BOOT_ON 0 VBST3 CH3_U7_N16854240 Driver_CH3_U7_S34 
X_CH3_U7_U826         CH3_U7_PWM_FINAL_NEW CH3_U7_N16854506 INV_BASIC_GEN
+  PARAMS: VDD=1 VSS=0 VTHRESH=500E-3
C_CH3_U7_C78         CH3_U7_N16854459 0  18n  
X_CH3_U7_U829         CH3_U7_OCDETECTION CH3_U7_N16872112 INV_BASIC_GEN PARAMS:
+  VDD=1 VSS=0 VTHRESH=500E-3
X_CH3_U7_U827         CH3_U7_OCDETECTION CH3_PWM_CLK CH3_U7_N16867475
+  AND2_BASIC_GEN PARAMS: VDD=1 VSS=0 VTHRESH=500E-3
E_CH3_U7_ABM173   CH3_U7_N16870092 0 VALUE { if(V(CH3_DUTY_AVE)>1.333,4.4
+   
+ ,if(V(CH3_DUTY_AVE)<0.333,1  
+ ,1+3.4*(V(CH3_DUTY_AVE)-0.333)))  }
X_CH3_U7_U846         CH3_U7_N16872424 CH3_U7_N16869087 CH3_U7_N16869662
+  CH3_U7_N16868525 SRLATCHRHP_BASIC_GEN PARAMS: VDD=1 VSS=0 VTHRESH=0.5
X_CH3_U7_U614         CH3_U7_LDRVIN CH3_U7_N16854303 CH3_U7_N16854350
+  AND2_BASIC_GEN PARAMS: VDD=1 VSS=0 VTHRESH=500E-3
V_CH3_U7_V12         CH3_U7_N16886188 0 2
E_CH3_U7_ABM224         CH3_U7_MAXON_COUNTUP 0 VALUE { IF(V(CH3_U7_MAXON_SLOPE)
+   >1, 1,0)    }
C_CH3_U7_C19         0 CH3_U7_MAXON_SLOPE  20p IC=0 
X_CH3_U7_S30    CH3_U7_HDRV SW3 VIN SW3 Driver_CH3_U7_S30 
X_CH3_U7_U849         OCLMODE3 CH3_U7_N16872112 CH3_U7_N16872541
+  CH3_U7_N16872424 AND3_BASIC_GEN PARAMS: VDD=1 VSS=0 VTHRESH=500E-3
R_CH3_U7_R244         CH3_U7_N16854534 CH3_U7_BOOT_UVLO  1  
X_CH3_U7_U845         OCLMODE3 CH3_U7_OCLSHOT CH3_U7_N16872223 AND2_BASIC_GEN
+  PARAMS: VDD=1 VSS=0 VTHRESH=500E-3
X_CH3_U7_D14         CH3_U7_N16854413 SW3 d_d1 PARAMS: 
E_CH3_U7_ABM178         CH3_U7_N16877042 0 VALUE { if(FCCM==1,1,0)    }
X_CH3_U7_U828         CH3_PWM_CLK CH3_U7_N16867498 INV_BASIC_GEN PARAMS: VDD=1
+  VSS=0 VTHRESH=500E-3
X_CH3_U7_U869         CH3_U7_PWM_FINAL_NEW CH3_U7_N16886779 INV_BASIC_GEN
+  PARAMS: VDD=1 VSS=0 VTHRESH=500E-3
X_CH3_U7_S37    SDWN3 0 SW3 0 Driver_CH3_U7_S37 
I_CH3_U7_I3         CH3_U7_N16886188 CH3_U7_MAXON_SLOPE DC 10u  
E_CH3_U7_ABM79         CH3_U7_N16854463 0 VALUE { {IF((V(CH3_U7_HDRV) - V(SW3))
+  > 1.1  
+ ,0,1)}   }
X_CH3_U7_U835         CH3_U7_N16871890 CH3_U7_N16872223 CH3_U7_PWM_FINAL_NEW
+  OR2_BASIC_GEN PARAMS: VDD=1 VSS=0 VTHRESH=500E-3
X_CH3_U7_S31    CH3_U7_LDRV 0 SW3 CH3_U7_N16854413 Driver_CH3_U7_S31 
C_CH3_U7_C77         CH3_U7_N16854440 0  18n  
E_CH3_U7_ABM172         CH3_U7_N16869087 0 VALUE { if(
+  V(CH3_U7_N16868726)>V(CH3_U7_N16870092),1,0 )    }
R_CH3_U7_R144         CH3_U7_N16854463 CH3_U7_N16854459  1  
X_CH3_U7_U870         SDWN3 CH3_U7_N16886779 CH3_U7_N16886782 OR2_BASIC_GEN
+  PARAMS: VDD=1 VSS=0 VTHRESH=500E-3
E_CH3_U7_ABM177         CH3_U7_N16875744 0 VALUE { if(V(CH3_U7_LDRV)<2.5,0  
+ ,if(V(CH3_U7_CURSNS)>0,1,0))   }
E_CH3_U7_ABM167         CH3_U7_N16854534 0 VALUE { {IF((V(VBST3) - V(SW3)) <
+  2.2,0,1)}    }
X_CH3_U7_U616         CH3_U7_LDRVIN CH3_U7_N16854314 INV_BASIC_GEN PARAMS:
+  VDD=1 VSS=0 VTHRESH=500E-3
X_CH3_U7_U851         CH3_U7_N16872598 CH3_U7_N16872541 INV_BASIC_GEN PARAMS:
+  VDD=1 VSS=0 VTHRESH=500E-3
X_CH3_U7_H2    CH3_U7_N16854413 PGND3 CH3_U7_CURSNS 0 Driver_CH3_U7_H2 
X_CH3_U7_U610         CH3_HDRVIN CH3_U7_N16854206 INV_BASIC_GEN PARAMS: VDD=1
+  VSS=0 VTHRESH=500E-3
X_CH3_U7_U832         OCLMODE3 CH3_U7_N16869662 CH3_U7_OCLSHOT AND2_BASIC_GEN
+  PARAMS: VDD=1 VSS=0 VTHRESH=500E-3
X_CH3_U7_S4    CH3_U7_N16854350 0 VREG5 CH3_U7_LDRV Driver_CH3_U7_S4 
X_CH3_U7_U613         SDWN3 CH3_U7_SDWN_N INV_BASIC_GEN PARAMS: VDD=1 VSS=0
+  VTHRESH=500E-3
C_CH3_U7_C140         0 CH3_U7_BOOT_UVLO  1n  
X_CH3_U7_S35    CH3_U7_N16868525 0 CH3_U7_N16868726 0 Driver_CH3_U7_S35 
R_CH3_U7_R247         0 CH3_U7_N16867782  1e8  
C_CH3_U7_C8         0 CH3_U7_N16868726  1.2p IC=0 
E_CH3_U7_ABM170         CH3_U7_N16854442 0 VALUE { {IF(V(CH3_U7_LDRV) >
+  1.1,0,1)}    }
G_CH3_U7_ABMII1         VREG5 CH3_U7_N16868726 VALUE { V(VIN) /2*1e-6    }
E_CH3_U7_ABM174         CH3_U7_N16870787 0 VALUE { if(
+  V(CH3_U7_LDRV)<2.5,0,V(CH3_U7_CURSNS))    }
X_CH3_U7_U612         CH3_U7_N16854206 CH3_U7_N16854278 BUF_DELAY_BASIC_GEN
+  PARAMS: VDD=1 VSS=0 VTHRESH=0.5 DELAY=20n
X_CH3_U7_U866         CH3_U7_N16885357 CH3_U7_PWM_FINAL_NEW CH3_U7_MINOFF
+  OR2_BASIC_GEN PARAMS: VDD=1 VSS=0 VTHRESH=500E-3
X_CH3_U7_U617         CH3_U7_N16854314 CH3_U7_N16854318 BUF_DELAY_BASIC_GEN
+  PARAMS: VDD=1 VSS=0 VTHRESH=0.5 DELAY=20n
X_CH3_U7_D15         CH3_U7_N16854240 VBST3 d_d1 PARAMS: 