*$
* TPS7A74_TRANS
*****************************************************************************
* (C) Copyright 2018 Texas Instruments Incorporated. All rights reserved.
*****************************************************************************
** This model is designed as an aid for customers of Texas Instruments.
** TI and its licensors and suppliers make no warranties, either expressed
** or implied, with respect to this model, including the warranties of
** merchantability or fitness for a particular purpose. The model is
** provided solely on an "as is" basis. The entire risk as to its quality
** and performance is with the customer.
*****************************************************************************
*
** Released by: WEBENCH Design Center, Texas Instruments Inc.
* Part: TPS7A74
* Date: 
* Model Type: Transient
* Simulator: PSPICE
* Simulator Version: 16.2.0.s003
* EVM Order Number:
* EVM Users Guide:
* Datasheet:
*
* Model Version: Final 1.00
*
*****************************************************************************
*
* Updates:
*
* Final 1.00
* Release to Web
*
*****************************************************************************
* Model Usage Notes:
*
* 1. The following features have been modeled
*      a. Start-up behaviour is modeled
*      b. Line transients 
*      c. Load transients
*      d. Current Limit and current foldback is modeled
*      e. PSRR is modeled only till 1st pole and 1st Zero (Model limitation)
*      f. Quiescent current
* 2. Noise characteristics and temperature effects are not modeled
*$ 
.SUBCKT TPS7A74_TRANS IN BIAS SS EN GND FB OUT  
E_TPS7A74_ABM1         TPS7A74_N242982 0 VALUE { MIN(V(TPS7A74_VXX),
+  (V(TPS7A74_VZZ)+(ILIM*ROUT)))    }
R_TPS7A74_R2         TPS7A74_N222524 TPS7A74_VXX  {PSRR*RINP}  
E_TPS7A74_U1_ABM5         TPS7A74_U1_N09745 0 VALUE {
+  MIN(V(TPS7A74_U1_N05382),  
+ MAX(V(IN) - {DROP}, 0))   }
X_TPS7A74_U1_U3         BIAS TPS7A74_U1_N278360 TPS7A74_U1_N278390
+  TPS7A74_U1_N278663 COMPHYS_BASIC_GEN PARAMS: VDD=1 VSS=0 VTHRESH=0.5
C_TPS7A74_U1_C5         0 TPS7A74_U1_N05348  {1e-6*SQRT(TTRN)}  
V_TPS7A74_U1_V5         TPS7A74_U1_N278360 0 {VBIASB}
E_TPS7A74_U1_ABM8         TPS7A74_U1_N280987 0 VALUE {
+  MIN(V(TPS7A74_U1_N09604),  
+ MAX(V(BIAS) - {DROP_BIAS}, 0))   }
V_TPS7A74_U1_V2         TPS7A74_U1_N11911 0 {VENB}
C_TPS7A74_U1_C2         0 TPS7A74_U1_N05382  1n  
X_TPS7A74_U1_U2         IN TPS7A74_U1_N12783 TPS7A74_U1_N12664
+  TPS7A74_U1_N13377 COMPHYS_BASIC_GEN PARAMS: VDD=1 VSS=0 VTHRESH=0.5
R_TPS7A74_U1_R4         TPS7A74_U1_N09035 TPS7A74_U1_N05382  10 TC=0,0 
V_TPS7A74_U1_V3         TPS7A74_U1_N12664 0 {UHYS}
R_TPS7A74_U1_R7         0 SS  1G TC=0,0 
E_TPS7A74_U1_ABM7         TPS7A74_N279114 0 VALUE {
+  IF((V(TPS7A74_U1_N13377)> 0.6) & (V(TPS7A74_U1_N11113) > 0.6) &
+  (V(TPS7A74_U1_N278663) > 0.6), VREF, 0)    }
V_TPS7A74_U1_V4         TPS7A74_U1_N12783 0 {UVLO}
R_TPS7A74_U1_R3         TPS7A74_N279114 TPS7A74_U1_N05348  
+ {3.333e5*SQRT(TTRN)} TC=0,0 
E_TPS7A74_U1_ABM4         TPS7A74_U1_N09035 0 VALUE {
+  V(TPS7A74_U1_N05348)  
+ * (ABS(V(OUT)) + 1e-6)  
+ / (ABS(V(FB)) + 1e-6)  }
R_TPS7A74_U1_R5         TPS7A74_U1_N09745 TPS7A74_U1_N09604  10 TC=0,0 
V_TPS7A74_U1_V1         TPS7A74_U1_N11626 0 {EHYS}
V_TPS7A74_U1_V6         TPS7A74_U1_N278390 0 {BHYS}
R_TPS7A74_U1_R2         GND TPS7A74_U1_N05382  1G  
C_TPS7A74_U1_C4         0 TPS7A74_N222524  1n  
R_TPS7A74_U1_R1         GND TPS7A74_U1_N05348  1G  
C_TPS7A74_U1_C3         0 TPS7A74_U1_N09604  1n  
R_TPS7A74_U1_R6         TPS7A74_U1_N280987 TPS7A74_N222524  10 TC=0,0 
X_TPS7A74_U1_U1         EN TPS7A74_U1_N11911 TPS7A74_U1_N11626
+  TPS7A74_U1_N11113 COMPHYS_BASIC_GEN PARAMS: VDD=1 VSS=0 VTHRESH=0.5
X_TPS7A74_F1    TPS7A74_VZZ OUT IN TPS7A74_VYY TPS7A74_F1 
C_TPS7A74_C1         TPS7A74_VXX IN  {1/(6.28*RINP*POLE)}  
X_TPS7A74_S2    TPS7A74_N279114 GND FB GND TPS7A74_S2 
C_TPS7A74_C2         TPS7A74_VXX TPS7A74_N222524  
+ {1/(6.28*PSRR*RINP*ZERO)}  
X_TPS7A74_S1    TPS7A74_N279114 GND OUT GND TPS7A74_S1 
C_TPS7A74_C3         0 TPS7A74_VYY  1n  
R_TPS7A74_R1         TPS7A74_VXX IN  {RINP}  
R_TPS7A74_R6         TPS7A74_N242982 TPS7A74_VYY  10 TC=0,0 
R_TPS7A74_R5         TPS7A74_VZZ TPS7A74_VYY  {ROUT}  
.PARAM  zero=500k ehys=55m uhys=0.0975 psrr=2.5m vref=0.65 uvlo=0.3575
+  drop=0.15 drop_bias=1.1 vbiasb=1.4 ttrn=350u bhys=60m venb=1.1 pole=10k
+  ilim=2.7 rout=4.7m rinp=1e7
.ENDS TPS7A74_TRANS

.subckt TPS7A74_F1 1 2 3 4  
F_TPS7A74_F1         3 4 VF_TPS7A74_F1 1
VF_TPS7A74_F1         1 2 0V
.ends TPS7A74_F1

.subckt TPS7A74_S2 1 2 3 4  
S_TPS7A74_S2         3 4 1 2 _TPS7A74_S2
RS_TPS7A74_S2         1 2 1G
.MODEL         _TPS7A74_S2 VSWITCH Roff=120 Ron=1Meg Voff=0.25 Von=0.5
.ends TPS7A74_S2

.subckt TPS7A74_S1 1 2 3 4  
S_TPS7A74_S1         3 4 1 2 _TPS7A74_S1
RS_TPS7A74_S1         1 2 1G
.MODEL         _TPS7A74_S1 VSWITCH Roff=600 Ron=1Meg Voff=0.25 Von=0.5
.ends TPS7A74_S1
