* TPS7H4001-SP WCA
*
*****************************************************************************
* (C) Copyright 2021 Texas Instruments Incorporated. All rights reserved.
*****************************************************************************
** This model is designed as an aid for customers of Texas Instruments.
** TI and its licensors and suppliers make no warranties, either expressed
** or implied, with respect to this model, including the warranties of
** merchantability or fitness for a particular purpose. The model is
** provided solely on an "as is" basis. The entire risk as to its quality
** and performance is with the customer
*****************************************************************************
*
** Released by: Texas Instruments Inc.
* Part: TPS7H4001-SP
* Date: 12FEB2021
* Model Type: Average
* Simulator: PSpice
* Simulator Version: 17.2
* EVM Order Number:
* EVM Users Guide:
* Datasheet:
* Model Version: 2.00
*
*****************************************************************************
*
* Updates:
*
* Version 2.00
* 
* Added Vref temperature variation table
* Added CCVS for GMps process variation
*
*****************************************************************************
* PSpice Model Editor - Version 17.2
*$
.SUBCKT TPS7H4001-SP_WCA VIN PVIN_0 PVIN_1 PVIN_2 PVIN_3 PVIN_4 COMP RSC
+  PH_0 PH_1 PH_2 PH_3 PH_4 PH_5 PH_6 PH_7 PH_8 PH_9 PH_10 PH_11 VSENSE
+  GND PGND_0 PGND_1 PGND_2 PGND_3 PGND_4 PGND_5 PGND_6 PAD
+  PARAMS: FS=500k L=0.9u Mean_Vref=0.605 Tol_Vref=0.0031 TID=0 Tol_GMps=0.0522
+  Tol_GMea=0.0872 Mean_GMps=40 Mean_GMea=1800u AGING=0
R_R21         PVIN_1 VIN  1u  
R_R23         LX PH_0  1u  
R_R48         LX PH_7  1u  
R_R46         LX PH_5  1u  
G_ABM3I1         GND COMP VALUE { LIMIT(((V(VREF_TOL) - V(VSENSE))
+  *V(GMEA_TOL)),-190u,190u)    }
E_TABLE2         N16779934 0 TABLE {V(N16779903)} -55V          1.135117473V  
+ -35V          1.091301689V  
+ -15V          1.056990926V  
+ 0V             1.035129644V  
+ 15V           1.01516458V  
+ 27V           1V  
+ 35V           0.989994167V  
+ 55V           0.965343749V  
+ 70V           0.946806862V  
+ 90V           0.921830701V  
+ 110V         0.89649785V 
+ 125V         0.888173V
R_R24         LX PH_1  1u  
V_V29         N16782730 0 1.1
R_R33         PVIN_3 VIN  1u  
R_R45         GND PGND_6  1u  
R_R25         LX PH_2  1u  
E_ABM1         N16779903 0 VALUE { {TEMP}    }
R_R44         GND PGND_5  1u  
C_C_ZOUTea         COMP GND  2.7p  
E_ABM4         SA 0 VALUE {
+  (1040*V(ISC)/1.1)/(0.001+(30*V(ISC)/1.1)-(24000000*V(ISC)/({FS}*1.1)))    }
X_U5_H1    U5_N16723688 LX U5_VM GND Power_stage_U5_H1 
V_U5_V_Acs         U5_ACS GND 1
G_U5_ABM3I2         GND U5_CX VALUE { (V(COMP)*V(U5_GMPS_TOL))/V(U5_ACS)    }
X_U5_U24          U5_DCX U5_N16719974 GND DC DC_LIMIT
R_U5_R1         U5_IOUT IOUT_DC  100 TC=0,0 
E_U5_ABM5         U5_DCX 0 VALUE { ( V(U5_CX)/  
+ (V(VIN) + 1u))   }
E_U5_ABM1         U5_N16724419 0 VALUE { {TEMP}    }
X_U5_H2    U5_CX U5_N16723688 U5_IOUT GND Power_stage_U5_H2 
R_U5_R_GMps_tol         U5_N16735881 U5_N16769797 R_U5_R_GMps_tol 1  
.model        R_U5_R_GMps_tol RES R=1 DEV={Tol_GMps*0.01}
X_U5_U25         U5_N16719974 GND DC_LOWLIMIT PARAMS:  FS={FS}
C_U5_C1         GND IOUT_DC  1m  
X_U5_U26         U5_GMPS_TOL DC U5_CX U5_ACS SA GND U5_CX GND ABM3I1_GMPS
+  PARAMS:  L={L} FS={FS}
G_U5_ABM2I1         VIN GND VALUE { (V(DC) * V(U5_VM))    }
E_U5_TABLE2         U5_N16724425 0 TABLE {V(U5_N16724419)} -55V         
+  0.879422559V  
+ -35V          0.9395856V  
+ -15V          0.926650991V  
+ 0V             0.960257422V  
+ 15V           0.989868125V  
+ 27V           1V  
+ 35V           1.012555744V  
+ 55V           1.043612029V  
+ 70V           1.041256896V  
+ 90V           1.070209102V  
+ 110V         1.085789521V 
+ 125V         1.10037682V
E_U5_ABM7         U5_GMPS_TOL 0 VALUE { ( V(U5_N16736213)  
+ *V(U5_N16724425)  
+ *V(U5_N16736225))  }
E_U5_ABM43         U5_N16735881 0 VALUE { IF( {AGING} > 0.5, {Mean_GMps}*1.05, 
+ {Mean_GMps} )    }
C_U5_C2         GND U5_CX  { 3/ ( {L}* (2*3.1415*{Fs})* (2*3.1415*{Fs}) ) }  
E_U5_TABLE17         U5_N16736213 0 TABLE {V(IOUT_DC)} 0.3V         
+  0.90850272V  
+ 1.5V          1.002204409V  
+ 3V             0.99390209V  
+ 4.5V          0.940652734V  
+ 6V             0.996112224V 
+ 9V             1V 
+ 12V           0.977343258V 
+ 15V           0.955811623V 
+ 18V           0.931090753V
X_U5_H3    U5_N16769797 GND U5_N16736225 GND Power_stage_U5_H3 
R_R20         PVIN_0 VIN  1u  
R_R40         LX PH_10  1u  
R_R22         VIN VIN  1u  
R_R26         LX PH_3  1u  
R_R38         LX PH_8  1u  
R_R43         GND PGND_4  1u  
R_R47         LX PH_6  1u  
R_R42         GND PGND_3  1u  
R_R34         PVIN_4 VIN  1u  
R_R_GMea_tol         N16824871 N16824883 R_R_GMea_tol 1  
.model        R_R_GMea_tol RES R=1 DEV={Tol_GMea*0.01}
R_R37         GND PGND_2  1u  
R_R27         LX PH_4  1u  
R_R49         GND IOUT_DC  1G TC=0,0 
R_R36         GND PGND_1  1u  
R_R41         LX PH_11  1u  
R_R30         GND PAD  1u  
X_H2    N16782730 RSC ISC 0 TPS7H4001-SP_WCA_H2 
R_R32         PVIN_2 VIN  1u  
R_R35         GND PGND_0  1u  
R_R39         LX PH_9  1u  
X_H1    N16824883 GND N16810231 GND TPS7H4001-SP_WCA_H1 
E_TABLE3         N16825264 0 TABLE {V(IOUT_DC)} 0.3V          1.019890261V  
+ 1.5V          1.01303155V  
+ 3V             1.006858711V  
+ 4.5V          1.002743484V  
+ 6V             1.000685871V 
+ 9V             1V 
+ 12V           0.999314129V 
+ 15V           0.999314129V 
+ 18V           0.999314129V
X_H3    N16808420 GND N16852082 GND TPS7H4001-SP_WCA_H3 
X_U24          N16828633 GND N16844556 VARICAP
R_R_Vref_tol         N16808500 N16808420 R_R_Vref_tol 1  
.model        R_R_Vref_tol RES R=1 DEV={Tol_Vref*0.01}
R_R_tune1         N16828633 VSENSE  {6.4k*(1+{TID}*-0.99/100)}  
V_V_Ctune2         N16827887 GND 360p
E_ABM5         GMEA_TOL 0 VALUE { ( V(N16825264)  
+ *V(N16779934)  
+ *V(N16810231))  }
X_U23          VSENSE GND N16843800 VARICAP
E_ABM44         N16808500 0 VALUE { IF( {AGING} > 0.5, {Mean_Vref}*0.991315702,
+  {Mean_Vref} )    }
X_U7         COMP GND N16821791 VCR 
E_ABM40         N16843797 0 VALUE { IF( {AGING} > 0.5, V(N16827887)*1.8,
+  V(N16827887) )    }
V_V_Ctune1         N16827834 GND 0.1n
E_ABM43         N16824871 0 VALUE { IF( {AGING} > 0.5, {Mean_GMea}*1.084655555,
+  {Mean_GMea} )    }
E_TABLE13         N16821791 0 TABLE {V(IOUT_DC)} 0.3V          0.277MEGV  
+ 1.5V          0.365MEGV  
+ 3V             0.523MEGV  
+ 4.5V          0.847MEGV  
+ 6V             2.272MEGV 
+ 9V             15.770MEGV 
+ 12V           13.300MEGV 
+ 15V           7MEGV 
+ 18V           3.170MEGV
E_ABM42         N16844554 0 VALUE { IF( {AGING} > 0.5, V(N16827834)*1,
+  V(N16827834) )    }
E_E1         N16843800 GND N16843797 GND {(1+{TID}*-0.99/100)}
E_E2         N16844556 GND N16844554 GND {(1+{TID}*6.5/100)}
E_TABLE14         N16852092 0 TABLE {V(N16850604)} -55V          0.99417989V  
+ -35V          0.997157248V  
+ -15V          0.99879842V  
+ 0V             0.999485299V  
+ 15V           0.999853573V  
+ 35V           1V  
+ 55V           0.999883711V  
+ 70V           0.999696135V  
+ 90V           0.999405065V  
+ 110V         0.999168774V  
+ 125V         0.99910165V
E_ABM45         N16850604 0 VALUE { {TEMP}    }
E_ABM46         VREF_TOL 0 VALUE { ( V(N16852092)*  
+   V(N16852082) )   }
.ENDS
*****************************************************************************
*$
.subckt Power_stage_U5_H1 1 2 3 4  
H_U5_H1         3 4 VH_U5_H1 1
VH_U5_H1         1 2 0V
.ends Power_stage_U5_H1
*$
.subckt Power_stage_U5_H2 1 2 3 4  
H_U5_H2         3 4 VH_U5_H2 1
VH_U5_H2         1 2 0V
.ends Power_stage_U5_H2
*$
.subckt Power_stage_U5_H3 1 2 3 4  
H_U5_H3         3 4 VH_U5_H3 {1}
VH_U5_H3         1 2 0V
.ends Power_stage_U5_H3
*$
.subckt TPS7H4001-SP_WCA_H2 1 2 3 4  
H_H2         3 4 VH_H2 1
VH_H2         1 2 0V
.ends TPS7H4001-SP_WCA_H2
*$
.subckt TPS7H4001-SP_WCA_H1 1 2 3 4 PARAMS:TID={TID}  
H_H1         3 4 VH_H1 {1+( ( { TID } * 0.04333832 ) / 100 ) }
VH_H1         1 2 0V
.ends TPS7H4001-SP_WCA_H1
*$
.subckt TPS7H4001-SP_WCA_H3 1 2 3 4  PARAMS:TID={TID}
H_H3         3 4 VH_H3 {1-( ({ TID } * 0.00036) / 100 ) }
VH_H3         1 2 0V
.ends TPS7H4001-SP_WCA_H3
*$
.SUBCKT VARICAP 1 2 CTRL
R1 1 3 1u
VC 3 4
EBC 4 2 Value = { (1/v(ctrl))*v(int) }
GINT 0 INT Value = { I(VC) }
CINT INT 0 1
Rdum INT 0 10E10
.ENDS VARICAP
*$
.SUBCKT VCR 1 2 CTRL
V_MEAS 1 3 0
E_VCR 3 2 VALUE = { I(V_MEAS) * V(CTRL) }
.ENDS
*$
.SUBCKT DC_LIMIT IN LOW GND OUT
E_DC OUT GND VALUE { LIMIT( V(IN,GND),V(LOW,GND),0.99) }
.ENDS
*$
.SUBCKT DC_LOWLIMIT OUT GND PARAMS: FS=100k
E_DC_LOW         OUT GND VALUE { 235n*{Fs} }
.ENDS
*$
.SUBCKT ABM3I1_GMps GMps_Tol DC CX Acs SA GND OUT+ OUT- PARAMS: L={L} FS={FS}
G_U5_ABM3I1 OUT+ OUT- VALUE {((V(SA,GND)*{Fs}*V(DC,GND)/V(GMps_Tol,GND))/
+ ((V(Acs,GND)*{Fs})/V(GMps_Tol,GND)))+((V(CX,GND))/(L*Fs))*((1-V(DC,GND))/2)}
.ENDS
*$
