*$ TPS7H2221-SEP
*****************************************************************************
*  (C) Copyright 2022 Texas Instruments Incorporated. All rights reserved.
***********************************************************************
** This model is designed as an aid for customers of Texas Instruments.
** TI and its licensors and suppliers make no warranties, either expressed
** or implied, with respect to this model, including the warranties of
** merchantability or fitness for a particular purpose. The model is
** provided solely on an "as is" basis. The entire risk as to its quality
** and performance is with the customer
********************************************************************************
* Released by: Texas Instruments Inc.
* Part: TPS7H2221-SEP
* Date: 19AUG2022
* Model Type: Transient
* Simulator: PSPICE
* Simulator Version: 17.4
* EVM Order Number: TPS7H2221EVM
* EVM Users Guide: SLVUCF4
* Datasheet: SLVSGP1
*
* Model Version: Final 1.00
*
*****************************************************************************
* Updates:
*
* Final 1.00
* Release to Web.
* 
*****************************************************************************
*
* Model Usage Notes:
*
* 1. Modeled features:
*	- RON variation with VIN
*	- Output short protection
*	- Smart Pull Down resistance
*	- Quick output discharge
*	- Turn on timing
*	- Quiescent current vs VIN
*	- Shutdown current vs VIN
* 2. Unmodeled features
*	- Thermal shutdown
*	- Temperature effects
* 3. Step size of 1us was used for model validation 
*
*****************************************************************************
.SUBCKT TPS7H2221-SEP_TRANS IN ON GND OUT QOD 
+ PARAMS: RPD_ON=491k VSC=0.36 R_ION=1.875G ON_FALL_HYS=0.043 RPD_QOD=6 ISC_1=3
+ ISC_2=0.512 ON_RISE_THRESH=0.701
E_U2_ABM2         U2_N14553152 0 VALUE { IF (V(ON_INT_PRE) < 0.5 , V(IN) ,  0)}
G_U2_G_ISD         IN GND TABLE { V(U2_N14553136, 0) } 
+ ( (0,0) (1.6,2n) (1.8,2n) (3.3, 2n) (5,2n) (5.5,2n) )
R_U2_R3         U2_N14553152 U2_N14553136  10 TC=0,0 
C_U2_C2         0 U2_N14553136  1n  
R_U2_R4         U2_N14553248 U2_N14553232  10 TC=0,0 
G_U2_G_IQ         IN GND TABLE { V(U2_N14553232, 0) } 
+ ( (0,0) (1.6,6.65u) (1.8,6.89u) (3.3, 8.6u) (5,9.23u) (5.5,9.63u) )
E_U2_ABM3         U2_N14553248 0 VALUE { IF (V(ON_INT_PRE) > 0.5 , V(IN) ,  0) 
+    }
C_U2_C3         0 U2_N14553232  1n  
E_U1_U2_E5         U1_U2_IGATE 0 TABLE { V(IN, 0) } 
+ ( (0,0) (1.8,0.89u) (3.3,1.19u) (5,1.47u) )
G_U1_U2_G1         U1_U2_VGATE_CLAMP U1_U2_VGATE U1_U2_N16813340 0 1
C_U1_U2_Cgd         U1_U2_N16813296 U1_U2_VGATE  0.4n  
X_U1_U2_U4_RDSon         IN U1_U2_N16813604 U1_U2_N16813658 0 RVAR PARAMS: 
+  RREF=1
D_U1_U2_D7         OUT U1_U2_VGATE DD 
X_U1_U2_H1    U1_U2_N16813604 U1_U2_N16813296 U1_U2_I_SENSE 0 DRIVER_U1_U2_H1 
E_U1_U2_E10         U1_U2_GATE_FALL 0 TABLE { V(IN, 0) } 
+ ( (0,0) (1.8,79.5u) (3.3,131.7u) (5,168u) )
E_U1_U2_ABM9         U1_U2_SC_LV1 0 VALUE { IF(V(OUT)<V(U1_U2_N16943098),  
+ 1,0)   }
E_U1_U2_E6         U1_U2_ITD 0 TABLE { V(IN, 0) } 
+ ( (0,0) (1.8,0.6u) (3.3,0.7u) (5,0.8u) )
M_U1_U2_M1         U1_U2_N16813296 U1_U2_VGATE OUT OUT NMOS01           
E_U1_U2_E8         U1_U2_VOUT_INT 0 U1_U2_N16958827 0 1
C_U1_U2_Cgs         U1_U2_VGATE OUT  0.1n  
E_U1_U2_ABM11         U1_U2_ILIM_VALUE 0 VALUE {
+  IF(V(U1_U2_PRE_VSC)<0.5,10,IF(V(U1_U2_SC_LV2)>0.5,{ISC_2},{ISC_1}))    }
X_U1_U2_S4    U1_U2_ON_INTB 0 QOD GND DRIVER_U1_U2_S4 PARAMS:RPD_QOD={RPD_QOD} 
D_U1_U2_D8         U1_U2_VOUT_INT U1_U2_VGATE DD 
G_U1_U2_ABM2I4         U1_U2_VGATE OUT VALUE { IF(V(U1_U2_VSC)<0.5, 0,
+  LIMIT((V(U1_U2_I_SENSE)-V(U1_U2_ILIM_VALUE))*1m, 0,100u))    }
D_U1_U2_D5         U1_U2_VGATE U1_U2_VGATE_CLAMP DD 
G_U1_U2_G2         U1_U2_VGATE U1_U2_VOUT_INT U1_U2_N16913031 0 1
V_U1_U2_V1         IN U1_U2_N16943098 1.5
D_U1_U2_D6         OUT U1_U2_N16813296 DD 
X_U1_U2_U791         U1_N03821 U1_U2_ON_INTB INV_BASIC_GEN PARAMS: VDD=1 VSS=0
+  VTHRESH=500E-3
X_U1_U2_U789         U1_U2_SC_LV1 U1_U2_SC_LV2 U1_U2_PRE_VSC OR2_BASIC_GEN
+  PARAMS: VDD=1 VSS=0 VTHRESH=500E-3
E_U1_U2_E7         U1_U2_VGATE_OUT 0 U1_U2_VGATE OUT 1
E_U1_U2_E4         U1_U2_N16813658 0 TABLE { V(IN, 0) } 
+ ( (1.6,19m) (1.8,19m) (3.3,1m) (5,2m) )
E_U1_U2_ABM8         U1_U2_N16813340 0 VALUE { IF ( V(U1_N03821) > 0.5 &
+  V(U1_U2_VGATE_OUT) < 0.65, V(U1_U2_ITD),  
+ IF ( V(U1_N03821) > 0.5 & V(U1_U2_VGATE_OUT) >= 0.65, V(U1_U2_IGATE) ,  0  )
+   )   }
X_U1_U2_U790         U1_U2_PRE_VSC U1_U2_VSC BUF_DELAY_BASIC_GEN PARAMS: VDD=1
+  VSS=0 VTHRESH=0.5 DELAY=2u
V_U1_U2_V2         U1_U2_VGATE_CLAMP IN 5
E_U1_U2_ABM10         U1_U2_SC_LV2 0 VALUE { IF(V(OUT)<{VSC},1,0)    }
R_U1_U2_R1         0 QOD  100G TC=0,0 
E_U1_U2_E11         U1_U2_GATE_OFF 0 TABLE { V(IN, 0) } 
+ ( (0,0) (1.8,1m) (3.3,512u) (5,370u) )
E_U1_U2_ABM14         U1_U2_N16913031 0 VALUE { IF ( V(U1_U2_ON_INTB) > 0.5 &
+  V(U1_U2_VGATE_OUT) > 1.5, V(U1_U2_GATE_OFF),  
+ IF ( V(U1_U2_ON_INTB) > 0.5 & V(U1_U2_VGATE_OUT) <= 1.5, V(U1_U2_GATE_FALL)
+  , 0) )   }
V_U1_U2_V3         U1_U2_N16958827 OUT 10m
X_U1_U1_S3    ON_INT_PRE 0 ON 0 CONTROL_U1_U1_S3 PARAMS:RPD_ON={RPD_ON} R_ION={R_ION}
G_U1_U1_ABM2I4         U1_U1_N14507001 U1_U1_N427858 VALUE { IF (V(ON_INT_PRE)
+  > 0.5, 1m, 0)    }
R_U1_U1_R3         U1_U1_N15516119 U1_U1_N15516099  10 TC=0,0 
V_U1_U1_V5         U1_U1_N14507001 0 2
X_U1_U1_S2    U1_U1_N427944 0 U1_U1_N427918 U1_U1_N427858 CONTROL_U1_U1_S2 
X_U1_U1_U46         U1_N03821 ON_INT_PRE U1_U1_N427964 NOR2_BASIC_GEN PARAMS:
+  VDD=1 VSS=0 VTHRESH=500E-3
G_U1_U1_G1         U1_U1_N427858 0 TABLE { V(U1_U1_N15516099, 0) } 
+ ( (0,0)(1.8,750m)(3.3,750m)(5,750m) )
X_U1_U1_U44         ON_INT_PRE U1_N03821 U1_U1_N427944 AND2_BASIC_GEN PARAMS:
+  VDD=1 VSS=0 VTHRESH=500E-3
X_U1_U1_S1    U1_U1_N427964 0 U1_U1_N427858 0 CONTROL_U1_U1_S1 
C_U1_U1_C1         0 U1_U1_N427858  1n IC=0 
C_U1_U1_C4         U1_U1_N15516099 0  1n  
V_U1_U1_V4         U1_U1_N427918 0 1
D_U1_U1_D3         U1_U1_N427858 U1_U1_N14507001 DD 
E_U1_U1_ABM5         U1_U1_N15516119 0 VALUE { IF(V(ON_INT_PRE) <0.5, V(IN),0) 
+    }
X_U1_U1_U5         ON U1_U1_ON_RISE U1_U1_ON_FALL ON_INT_PRE COMPHYS_BASIC_GEN
+  PARAMS: VDD=1 VSS=0 VTHRESH=0.5
X_U1_U1_U43         U1_U1_N427858 U1_N03821 BUF_BASIC_GEN PARAMS: VDD=1 VSS=0
+  VTHRESH=0.5
E_U1_U1_ABM6         U1_U1_ON_RISE 0 VALUE { {ON_RISE_THRESH}    }
E_U1_U1_ABM7         U1_U1_ON_FALL 0 VALUE { {ON_FALL_HYS}    }
.ENDS TPS7H2221-SEP_TRANS
*****************************************************************************

.subckt DRIVER_U1_U2_H1 1 2 3 4  
H_U1_U2_H1         3 4 VH_U1_U2_H1 1
VH_U1_U2_H1         1 2 0V
.ends DRIVER_U1_U2_H1

.subckt DRIVER_U1_U2_S4 1 2 3 4 PARAMS:RPD_QOD=6 
S_U1_U2_S4         3 4 1 2 _U1_U2_S4
RS_U1_U2_S4         1 2 1G
.MODEL         _U1_U2_S4 VSWITCH Roff=1G Ron={RPD_QOD} Voff=0.2 Von=0.8
.ends DRIVER_U1_U2_S4

.subckt CONTROL_U1_U1_S3 1 2 3 4 PARAMS:RPD_ON=491k R_ION=1.875G   
S_U1_U1_S3         3 4 1 2 _U1_U1_S3
RS_U1_U1_S3         1 2 1G
.MODEL         _U1_U1_S3 VSWITCH Roff={RPD_ON} Ron={R_ION} Voff=0.2 Von=0.8
.ends CONTROL_U1_U1_S3

.subckt CONTROL_U1_U1_S2 1 2 3 4  
S_U1_U1_S2         3 4 1 2 _U1_U1_S2
RS_U1_U1_S2         1 2 1G
.MODEL         _U1_U1_S2 VSWITCH Roff=1G Ron=1m Voff=0.2 Von=0.8
.ends CONTROL_U1_U1_S2

.subckt CONTROL_U1_U1_S1 1 2 3 4  
S_U1_U1_S1         3 4 1 2 _U1_U1_S1
RS_U1_U1_S1         1 2 1G
.MODEL         _U1_U1_S1 VSWITCH Roff=1G Ron=1m Voff=0.2 Von=0.8
.ends CONTROL_U1_U1_S1

*****************************************************************************

.SUBCKT NAND2_BASIC_GEN A B Y PARAMS: VDD=1 VSS=0 VTHRESH=0.5 
E_ABMGATE    YINT 0 VALUE {{IF(V(A) > {VTHRESH}  &  
+ V(B) > {VTHRESH},{VSS},{VDD})}}
RINT YINT Y 1
CINT Y 0 1n
.ENDS NAND2_BASIC_GEN
*$
.SUBCKT COMPHYS_BASIC_GEN INP INM HYS OUT PARAMS: VDD=1 VSS=0 VTHRESH=0.5	
EIN INP1 INM1 INP INM 1 
EHYS INP1 INP2 VALUE { IF( V(1) > {VTHRESH},-V(HYS),0) }
EOUT OUT 0 VALUE { IF( V(INP2)>V(INM1), {VDD} ,{VSS}) }
R1 OUT 1 1
C1 1 0 5n
RINP1 INP1 0 1K
.ENDS COMPHYS_BASIC_GEN
*$
.MODEL DD D( IS=1F N=0.01 TT = 10p )
*$
.MODEL NMOS01 NMOS (VTO = 0.65 KP = 5.931 LAMBDA = 0.001)
*$
.SUBCKT AND2_BASIC_GEN A B Y PARAMS: VDD=1 VSS=0 VTHRESH=0.5 
E_ABMGATE    YINT 0 VALUE {{IF(V(A) > {VTHRESH}  &  
+ V(B) > {VTHRESH},{VDD},{VSS})}}
RINT YINT Y 1
CINT Y 0 1n
.ENDS AND2_BASIC_GEN
*$
.SUBCKT OR2_BASIC_GEN A B Y PARAMS: VDD=1 VSS=0 VTHRESH=0.5 
E_ABMGATE    YINT 0 VALUE {{IF(V(A) > {VTHRESH}  |  
+ V(B) > {VTHRESH},{VDD},{VSS})}}
RINT YINT Y 1
CINT Y 0 1n
.ENDS OR2_BASIC_GEN
*$
.SUBCKT BUF_BASIC_GEN A  Y PARAMS: VDD=1 VSS=0 VTHRESH=0.5 
E_ABMGATE    YINT 0 VALUE {{IF(V(A) > {VTHRESH} , 
+ {VDD},{VSS})}}
RINT YINT Y 1
CINT Y 0 1n
.ENDS BUF_BASIC_GEN
*$
.SUBCKT NOR2_BASIC_GEN A B Y PARAMS: VDD=1 VSS=0 VTHRESH=0.5 
E_ABMGATE    YINT 0 VALUE {{IF(V(A) > {VTHRESH}  |  
+ V(B) > {VTHRESH},{VSS},{VDD})}}
RINT YINT Y 1
CINT Y 0 1n
.ENDS NOR2_BASIC_GEN
*$
.SUBCKT RVAR 101 102 201 202 Params: Rref=1
* nodes : 101 102 : nodes between which variable resistance is placed
* 201 202 : nodes to whose voltage the resistance is proportional
* parameters : rref : reference value of the resistance
rin 201 202 1G; input resistance
r 301 0 {rref}
fcopy 0 301 vsense 1; copy output current thru Z
eout 101 106 poly(2) 201 202 301 0 0 0 0 0 1; multiply VoverZ with Vctrl
vsense 106 102 0; sense iout
.ENDS RVAR
*$
**Reset has higher priority in this latch
.SUBCKT SRLATCHRHP_BASIC_GEN S R Q QB PARAMS: VDD=1 VSS=0 VTHRESH=0.5 
GQ 0 Qint VALUE = {IF(V(R) > {VTHRESH},-5,IF(V(S)>{VTHRESH},5, 0))}
CQint Qint 0 1n
RQint Qint 0 1000MEG
D_D10 Qint MY5 D_D1
V1 MY5 0 {VDD}
D_D11 MYVSS Qint D_D1
V2 MYVSS 0 {VSS} 
EQ Qqq 0 Qint 0 1
X3 Qqq Qqqd1 BUF_BASIC_GEN PARAMS: VDD={VDD} VSS={VSS} VTHRESH={VTHRESH}
RQq Qqqd1 Q 1
EQb Qbr 0 VALUE = {IF( V(Q) > {VTHRESH}, {VSS},{VDD})}
RQb Qbr QB 1 
Cdummy1 Q 0 1n 
Cdummy2 QB 0 1n
.IC V(Qint) {VSS}
.MODEL D_D1 D (IS = 1e-15 TT = 10p Rs=0.05 N = 0.1)
.ENDS SRLATCHRHP_BASIC_GEN
*$
.SUBCKT D_D1 1 2
D1 1 2 DD1
.MODEL DD1 D (IS = 1e-15 TT = 10p Rs=0.05 N = 0.1)
.ENDS D_D1
*$
.SUBCKT BUF_DELAY_BASIC_GEN A  Y PARAMS: VDD=1 VSS=0 VTHRESH=0.5 DELAY = 10n 
E_ABMGATE1    YINT1 0 VALUE {{IF(V(A) > {VTHRESH} , 
+ {VDD},{VSS})}}
RINT YINT1 YINT2 1
CINT YINT2 0 {DELAY*1.3}
E_ABMGATE2    YINT3 0 VALUE {{IF(V(YINT2) > {VTHRESH} , 
+ {VDD},{VSS})}}
RINT2 YINT3 Y 1
CINT2 Y 0 1n
.ENDS BUF_DELAY_BASIC_GEN
*$
.SUBCKT INV_BASIC_GEN A  Y PARAMS: VDD=1 VSS=0 VTHRESH=0.5 
E_ABMGATE    YINT 0 VALUE {{IF(V(A) > {VTHRESH} , 
+ {VSS},{VDD})}}
RINT YINT Y 1
CINT Y 0 1n
.ENDS INV_BASIC_GEN
*$
.SUBCKT COMP_BASIC_GEN INP INM Y PARAMS: VDD=1 VSS=0 VTHRESH=0.5	
E_ABM Yint 0 VALUE {IF (V(INP) > 
+ V(INM), {VDD},{VSS})}
R1 Yint Y 1
C1 Y 0 1n
.ENDS COMP_BASIC_GEN
*$
.SUBCKT RISING_ONESHOT IN OUT PARAMS: PULSE=100n VDD=1 VSS=0 VTHRESH=0.5
D_D1         INT IN DD 
C_C1         0 INT  1n  
X_U22         INT IN_B_DELAYED INV_BASIC_GEN PARAMS: VDD={VDD} VSS={VSS}
+  VTHRESH={VTHRESH}
R_R1         IN INT  {PULSE/(0.693 * 1E-9)}  
X_U1         IN IN_B_DELAYED OUT AND2_BASIC_GEN PARAMS: VDD={VDD} VSS={VSS}
+  VTHRESH={VTHRESH}
.MODEL DD D( IS=1F N=0.01 TT = 10p )
.ENDS RISING_ONESHOT
*$