*$
* TPS92830-Q1
*****************************************************************************
* (C) Copyright 2016 Texas Instruments Incorporated. All rights reserved.                                            
*****************************************************************************
** This model is designed as an aid for customers of Texas Instruments.
** TI and its licensors and suppliers make no warranties, either expressed
** or implied, with respect to this model, including the warranties of 
** merchantability or fitness for a particular purpose.  The model is
** provided solely on an "as is" basis.  The entire risk as to its quality
** and performance is with the customer
*****************************************************************************
*
* This model is subject to change without notice. Texas Instruments
* Incorporated is not responsible for updating this model.
*
*****************************************************************************
*
** Released by: WEBENCH Design Center, Texas Instruments Inc.
* Part: TPS92830-Q1
* Date: 29JUN2017
* Model Type: TRANSIENT 
* Simulator: PSPICE
* Simulator Version: 16.2.0.p001
* EVM Order Number: TPS92830EVM
* EVM Users Guide: SLVUB41
* Datasheet: SLIS178 –APRIL 2017
* Topologies Supported: NA
*
* Model Version: Final 1.00
*
*****************************************************************************
*
* Updates:
*
* Final 1.00
* Release to Web.
*
*****************************************************************************
*
* Model Usage Notes:
*
* 1. The following features have been modeled
*	   a. Dropout Voltage
*      b. Timing Parameters - Adaptive PWM ON/OFF Delay and Startup Time
*      c. FAULT Detection & Recovery for Short Circuit fault, Open Load/Short to Battery fault, Temperature Shutdown
*	   d. Analog and PWM Dimming
*	   e. Charge Pump characteristics
*	   f. Output Current Derating
* 2. Quiescent current have not been modeled.
* 3. Ground pins have been tied to 0V internally. 
*    Therefore, this model cannot be used for inverting topologies
*
*****************************************************************************
.SUBCKT TPS92830-Q1_TRANS CP1N CP1P CP2N CP2P CPOUT DERATE DIAGEN
+  FAULT_N FD G1 G2 G3 GND ICTRL IN IREF ISN1 ISN2 ISN3 ISP PAD PWM1 PWM2 PWM3
+  PWMCHG PWMOUT SENSE1 SENSE2 SENSE3 PARAMS: TEMPERATURE=25
X_U42         SCDET3_DELAYED OCDET3_DELAYED FAULT_ASSERT_CH3 OR2_BASIC_GEN
+  PARAMS: VDD=1 VSS=0 VTHRESH=500E-3
R_R12         FAULT_ASSERT N161647  100k TC=0,0 
X_U4         VINOK_STARTUP_B TH_SHDWN_DELAYED FAULTB_INT_B N16790873
+  OR3_BASIC_GEN PARAMS: VDD=1 VSS=0 VTHRESH=500E-3
D_D16         N16806338 VINOK D_D 
E_E6         N16907335 0 ISP ISN3 1
R_R15         PAD 0  1m  
X_U25         N161647 FAULT_ASSERT_DEGLITCH BUF_BASIC_GEN PARAMS: VDD=1 VSS=0
+  VTHRESH=0.5
V_V20         N16907397 0 10m
X_U16         FAULT_N N16956791 FAULTB_INT COMPHYS3_BASIC_GEN PARAMS: VDD=1
+  VSS=0 VTHRESH=0.5 HYS=1.3
X_U11         TJN N227091 TH_SHDWN COMPHYS3_BASIC_GEN PARAMS: VDD=1 VSS=0
+  VTHRESH=0.5 HYS=15
X_U49         FAULT_ASSERT_CH2 TURN_OFF_CHANNEL_CH2 INV_BASIC_GEN PARAMS: VDD=1
+  VSS=0 VTHRESH=500E-3
X_Fault_Rec_ch3_Timer_OC_U74         OC_RETRY_ON_CH3
+  Fault_Rec_ch3_Timer_OC_N16781360 INV_BASIC_GEN PARAMS: VDD=1 VSS=0
+  VTHRESH=500E-3
X_Fault_Rec_ch3_Timer_OC_U70         OCDET3_DELAYED
+  Fault_Rec_ch3_Timer_OC_N16765820 INV_BASIC_GEN PARAMS: VDD=1 VSS=0
+  VTHRESH=500E-3
G_Fault_Rec_ch3_Timer_OC_ABMII1         Fault_Rec_ch3_Timer_OC_N16765828
+  Fault_Rec_ch3_Timer_OC_RETY_TIME VALUE { IF(V(Fault_Rec_ch3_Timer_OC_DISCH) >
+  0.5,0, {1n*1/10m})    }
X_Fault_Rec_ch3_Timer_OC_U17         Fault_Rec_ch3_Timer_OC_N16781360
+  OC_RETRY_ON_FALLING_CH3 one_shot PARAMS:  T=50  
X_Fault_Rec_ch3_Timer_OC_U3         Fault_Rec_ch3_Timer_OC_N16765820
+  Fault_Rec_ch3_Timer_OC_N16766262 Fault_Rec_ch3_Timer_OC_DISCH OR2_BASIC_GEN
+  PARAMS: VDD=1 VSS=0 VTHRESH=500E-3
V_Fault_Rec_ch3_Timer_OC_V1         Fault_Rec_ch3_Timer_OC_N16765828 0 10
D_Fault_Rec_ch3_Timer_OC_D12         Fault_Rec_ch3_Timer_OC_RETY_TIME
+  Fault_Rec_ch3_Timer_OC_N16765828 D_D 
X_Fault_Rec_ch3_Timer_OC_U71         OC_RETRY_ON_CH3
+  Fault_Rec_ch3_Timer_OC_N16766262 BUF_DELAY_BASIC_GEN PARAMS: VDD=1 VSS=0
+  VTHRESH=0.5 DELAY=20n
C_Fault_Rec_ch3_Timer_OC_C3         0 Fault_Rec_ch3_Timer_OC_RETY_TIME  1n  
X_Fault_Rec_ch3_Timer_OC_U14         Fault_Rec_ch3_Timer_OC_RETY_TIME
+  Fault_Rec_ch3_Timer_OC_N16766064 Fault_Rec_ch3_Timer_OC_10MS_PULSE
+  COMPHYS3_BASIC_GEN PARAMS: VDD=1 VSS=0 VTHRESH=0.5 HYS=100m
X_Fault_Rec_ch3_Timer_OC_S2    Fault_Rec_ch3_Timer_OC_DISCH 0
+  Fault_Rec_ch3_Timer_OC_RETY_TIME 0 Retry_Timer_Fault_Rec_ch3_Timer_OC_S2 
V_Fault_Rec_ch3_Timer_OC_V2         Fault_Rec_ch3_Timer_OC_N16766064 0 1Vdc
X_Fault_Rec_ch3_Timer_OC_U15         Fault_Rec_ch3_Timer_OC_10MS_PULSE
+  OC_RETRY_ON_CH3 one_shot PARAMS:  T=125000
D_Fault_Rec_ch3_D13         SENSE3 IN D_D 
G_Fault_Rec_ch3_ABMII3         IN SENSE3 VALUE { (V(OC_RETRY_ON_CH3) * 10m)   
+  }
G_Fault_Rec_ch3_ABMII2         IN SENSE3 VALUE { (V(SC_RETRY_ON_CH3) * 1m)    }
X_Fault_Rec_ch3_Timer_SC_U74         SC_RETRY_ON_CH3
+  Fault_Rec_ch3_Timer_SC_N16781360 INV_BASIC_GEN PARAMS: VDD=1 VSS=0
+  VTHRESH=500E-3
X_Fault_Rec_ch3_Timer_SC_U70         SCDET3_DELAYED
+  Fault_Rec_ch3_Timer_SC_N16765820 INV_BASIC_GEN PARAMS: VDD=1 VSS=0
+  VTHRESH=500E-3
G_Fault_Rec_ch3_Timer_SC_ABMII1         Fault_Rec_ch3_Timer_SC_N16765828
+  Fault_Rec_ch3_Timer_SC_RETY_TIME VALUE { IF(V(Fault_Rec_ch3_Timer_SC_DISCH) >
+  0.5,0, {1n*1/10m})    }
X_Fault_Rec_ch3_Timer_SC_U17         Fault_Rec_ch3_Timer_SC_N16781360
+  SC_RETRY_ON_FALLING_CH3 one_shot PARAMS:  T=50  
X_Fault_Rec_ch3_Timer_SC_U3         Fault_Rec_ch3_Timer_SC_N16765820
+  Fault_Rec_ch3_Timer_SC_N16766262 Fault_Rec_ch3_Timer_SC_DISCH OR2_BASIC_GEN
+  PARAMS: VDD=1 VSS=0 VTHRESH=500E-3
V_Fault_Rec_ch3_Timer_SC_V1         Fault_Rec_ch3_Timer_SC_N16765828 0 10
D_Fault_Rec_ch3_Timer_SC_D12         Fault_Rec_ch3_Timer_SC_RETY_TIME
+  Fault_Rec_ch3_Timer_SC_N16765828 D_D 
X_Fault_Rec_ch3_Timer_SC_U71         SC_RETRY_ON_CH3
+  Fault_Rec_ch3_Timer_SC_N16766262 BUF_DELAY_BASIC_GEN PARAMS: VDD=1 VSS=0
+  VTHRESH=0.5 DELAY=20n
C_Fault_Rec_ch3_Timer_SC_C3         0 Fault_Rec_ch3_Timer_SC_RETY_TIME  1n  
X_Fault_Rec_ch3_Timer_SC_U14         Fault_Rec_ch3_Timer_SC_RETY_TIME
+  Fault_Rec_ch3_Timer_SC_N16766064 Fault_Rec_ch3_Timer_SC_10MS_PULSE
+  COMPHYS3_BASIC_GEN PARAMS: VDD=1 VSS=0 VTHRESH=0.5 HYS=100m
X_Fault_Rec_ch3_Timer_SC_S2    Fault_Rec_ch3_Timer_SC_DISCH 0
+  Fault_Rec_ch3_Timer_SC_RETY_TIME 0 Retry_Timer_Fault_Rec_ch3_Timer_SC_S2 
V_Fault_Rec_ch3_Timer_SC_V2         Fault_Rec_ch3_Timer_SC_N16766064 0 1Vdc
X_Fault_Rec_ch3_Timer_SC_U15         Fault_Rec_ch3_Timer_SC_10MS_PULSE
+  SC_RETRY_ON_CH3 one_shot PARAMS:  T=125000
D_Fault_Rec_ch3_D15         SENSE3 IN D_D 
X_U36         N16907335 N16907397 ISP_ISNX_10MV_CH3 COMP_BASIC_GEN PARAMS:
+  VDD=1 VSS=0 VTHRESH=0.5
R_R2         N196972 PULL_UP  200k  
X_Fault_Rec_ch1_Timer_OC_U74         OC_RETRY_ON_CH1
+  Fault_Rec_ch1_Timer_OC_N16781360 INV_BASIC_GEN PARAMS: VDD=1 VSS=0
+  VTHRESH=500E-3
X_Fault_Rec_ch1_Timer_OC_U70         OCDET1_DELAYED
+  Fault_Rec_ch1_Timer_OC_N16765820 INV_BASIC_GEN PARAMS: VDD=1 VSS=0
+  VTHRESH=500E-3
G_Fault_Rec_ch1_Timer_OC_ABMII1         Fault_Rec_ch1_Timer_OC_N16765828
+  Fault_Rec_ch1_Timer_OC_RETY_TIME VALUE { IF(V(Fault_Rec_ch1_Timer_OC_DISCH) >
+  0.5,0, {1n*1/10m})    }
X_Fault_Rec_ch1_Timer_OC_U17         Fault_Rec_ch1_Timer_OC_N16781360
+  OC_RETRY_ON_FALLING_CH1 one_shot PARAMS:  T=50  
X_Fault_Rec_ch1_Timer_OC_U3         Fault_Rec_ch1_Timer_OC_N16765820
+  Fault_Rec_ch1_Timer_OC_N16766262 Fault_Rec_ch1_Timer_OC_DISCH OR2_BASIC_GEN
+  PARAMS: VDD=1 VSS=0 VTHRESH=500E-3
V_Fault_Rec_ch1_Timer_OC_V1         Fault_Rec_ch1_Timer_OC_N16765828 0 10
D_Fault_Rec_ch1_Timer_OC_D12         Fault_Rec_ch1_Timer_OC_RETY_TIME
+  Fault_Rec_ch1_Timer_OC_N16765828 D_D 
X_Fault_Rec_ch1_Timer_OC_U71         OC_RETRY_ON_CH1
+  Fault_Rec_ch1_Timer_OC_N16766262 BUF_DELAY_BASIC_GEN PARAMS: VDD=1 VSS=0
+  VTHRESH=0.5 DELAY=20n
C_Fault_Rec_ch1_Timer_OC_C3         0 Fault_Rec_ch1_Timer_OC_RETY_TIME  1n  
X_Fault_Rec_ch1_Timer_OC_U14         Fault_Rec_ch1_Timer_OC_RETY_TIME
+  Fault_Rec_ch1_Timer_OC_N16766064 Fault_Rec_ch1_Timer_OC_10MS_PULSE
+  COMPHYS3_BASIC_GEN PARAMS: VDD=1 VSS=0 VTHRESH=0.5 HYS=100m
X_Fault_Rec_ch1_Timer_OC_S2    Fault_Rec_ch1_Timer_OC_DISCH 0
+  Fault_Rec_ch1_Timer_OC_RETY_TIME 0 Retry_Timer_Fault_Rec_ch1_Timer_OC_S2 
V_Fault_Rec_ch1_Timer_OC_V2         Fault_Rec_ch1_Timer_OC_N16766064 0 1Vdc
X_Fault_Rec_ch1_Timer_OC_U15         Fault_Rec_ch1_Timer_OC_10MS_PULSE
+  OC_RETRY_ON_CH1 one_shot PARAMS:  T=125000
D_Fault_Rec_ch1_D13         SENSE1 IN D_D 
G_Fault_Rec_ch1_ABMII3         IN SENSE1 VALUE { (V(OC_RETRY_ON_CH1) * 10m)   
+  }
G_Fault_Rec_ch1_ABMII2         IN SENSE1 VALUE { (V(SC_RETRY_ON_CH1) * 1m)    }
X_Fault_Rec_ch1_Timer_SC_U74         SC_RETRY_ON_CH1
+  Fault_Rec_ch1_Timer_SC_N16781360 INV_BASIC_GEN PARAMS: VDD=1 VSS=0
+  VTHRESH=500E-3
X_Fault_Rec_ch1_Timer_SC_U70         SCDET1_DELAYED
+  Fault_Rec_ch1_Timer_SC_N16765820 INV_BASIC_GEN PARAMS: VDD=1 VSS=0
+  VTHRESH=500E-3
G_Fault_Rec_ch1_Timer_SC_ABMII1         Fault_Rec_ch1_Timer_SC_N16765828
+  Fault_Rec_ch1_Timer_SC_RETY_TIME VALUE { IF(V(Fault_Rec_ch1_Timer_SC_DISCH) >
+  0.5,0, {1n*1/10m})    }
X_Fault_Rec_ch1_Timer_SC_U17         Fault_Rec_ch1_Timer_SC_N16781360
+  SC_RETRY_ON_FALLING_CH1 one_shot PARAMS:  T=50  
X_Fault_Rec_ch1_Timer_SC_U3         Fault_Rec_ch1_Timer_SC_N16765820
+  Fault_Rec_ch1_Timer_SC_N16766262 Fault_Rec_ch1_Timer_SC_DISCH OR2_BASIC_GEN
+  PARAMS: VDD=1 VSS=0 VTHRESH=500E-3
V_Fault_Rec_ch1_Timer_SC_V1         Fault_Rec_ch1_Timer_SC_N16765828 0 10
D_Fault_Rec_ch1_Timer_SC_D12         Fault_Rec_ch1_Timer_SC_RETY_TIME
+  Fault_Rec_ch1_Timer_SC_N16765828 D_D 
X_Fault_Rec_ch1_Timer_SC_U71         SC_RETRY_ON_CH1
+  Fault_Rec_ch1_Timer_SC_N16766262 BUF_DELAY_BASIC_GEN PARAMS: VDD=1 VSS=0
+  VTHRESH=0.5 DELAY=20n
C_Fault_Rec_ch1_Timer_SC_C3         0 Fault_Rec_ch1_Timer_SC_RETY_TIME  1n  
X_Fault_Rec_ch1_Timer_SC_U14         Fault_Rec_ch1_Timer_SC_RETY_TIME
+  Fault_Rec_ch1_Timer_SC_N16766064 Fault_Rec_ch1_Timer_SC_10MS_PULSE
+  COMPHYS3_BASIC_GEN PARAMS: VDD=1 VSS=0 VTHRESH=0.5 HYS=100m
X_Fault_Rec_ch1_Timer_SC_S2    Fault_Rec_ch1_Timer_SC_DISCH 0
+  Fault_Rec_ch1_Timer_SC_RETY_TIME 0 Retry_Timer_Fault_Rec_ch1_Timer_SC_S2 
V_Fault_Rec_ch1_Timer_SC_V2         Fault_Rec_ch1_Timer_SC_N16766064 0 1Vdc
X_Fault_Rec_ch1_Timer_SC_U15         Fault_Rec_ch1_Timer_SC_10MS_PULSE
+  SC_RETRY_ON_CH1 one_shot PARAMS:  T=125000
D_Fault_Rec_ch1_D15         SENSE1 IN D_D 
C_C12         0 N161647  {1.4427*15u/100k}  TC=0,0 
X_U40         SCDET1_DELAYED OCDET1_DELAYED FAULT_ASSERT_CH1 OR2_BASIC_GEN
+  PARAMS: VDD=1 VSS=0 VTHRESH=500E-3
X_FAULT_ch3_U83         VINOK_STARTUP TEMP_SHDWN_B FAULT_ch3_RESET_SC
+  NAND2_BASIC_GEN PARAMS: VDD=1 VSS=0 VTHRESH=500E-3
D_FAULT_ch3_F_D_L_SC_D18         FAULT_ch3_F_D_L_SC_N00980
+  FAULT_ch3_F_D_L_SC_N00920 D_D 
C_FAULT_ch3_F_D_L_SC_C5         0 FAULT_ch3_F_D_L_SC_N00980  {1.4427*125u/100k}
+   TC=0,0 
X_FAULT_ch3_F_D_L_SC_U48         FAULT_ch3_F_D_L_SC_FDETX_DEGLITCH_TIME
+  FAULT_ch3_F_D_L_SC_FAULT_RESET SCDET3_DELAYED FAULT_ch3_F_D_L_SC_N22506
+  srlatchrhp_basic_gen PARAMS: VDD=1 VSS=0 VTHRESH=0.5
R_FAULT_ch3_F_D_L_SC_R8         FAULT_ch3_F_D_L_SC_N00920
+  FAULT_ch3_F_D_L_SC_N00980  100k TC=0,0 
X_FAULT_ch3_F_D_L_SC_U381         SC_RETRY_ON_FALLING_CH3
+  FAULT_ch3_F_D_L_SC_N16545 FAULT_ch3_F_D_L_SC_N27400 AND2_BASIC_GEN PARAMS:
+  VDD=1 VSS=0 VTHRESH=500E-3
X_FAULT_ch3_F_D_L_SC_U382         FAULT_ch3_F_D_L_SC_N27400 FAULT_ch3_RESET_SC
+  FAULT_ch3_F_D_L_SC_FAULT_RESET OR2_BASIC_GEN PARAMS: VDD=1 VSS=0
+  VTHRESH=500E-3
R_FAULT_ch3_F_D_L_SC_R9         0 FAULT_ch3_F_D_L_SC_N22506  100k  
X_FAULT_ch3_F_D_L_SC_U67         FAULT_ch3_SCDETX_PRE FAULT_ch3_F_D_L_SC_N16545
+  INV_BASIC_GEN PARAMS: VDD=1 VSS=0 VTHRESH=500E-3
X_FAULT_ch3_F_D_L_SC_U38         CHANNEL3_PWM FAULT_ch3_SCDETX
+  FAULT_ch3_F_D_L_SC_N00920 AND2_BASIC_GEN PARAMS: VDD=1 VSS=0 VTHRESH=500E-3
X_FAULT_ch3_F_D_L_SC_U20         FAULT_ch3_F_D_L_SC_N00980
+  FAULT_ch3_F_D_L_SC_FDETX_DEGLITCH_TIME BUF_BASIC_GEN PARAMS: VDD=1 VSS=0
+  VTHRESH=0.5
X_FAULT_ch3_U81         TEMP_SHDWN_B TURN_OFF_ALLCH FAULTB_INT
+  FAULT_ch3_NO_FAULT_DETECT AND3_BASIC_GEN PARAMS: VDD=1 VSS=0 VTHRESH=500E-3
X_FAULT_ch3_U82         FAULT_ch3_N16938789 FAULT_ch3_NO_FAULT_DETECT
+  FAULT_ch3_N16973439 AND2_BASIC_GEN PARAMS: VDD=1 VSS=0 VTHRESH=500E-3
X_FAULT_ch3_U74         CHANNEL3_PWM VINOK_STARTUP FAULT_ch3_N16973439
+  FAULT_ch3_N16916458 AND3_BASIC_GEN PARAMS: VDD=1 VSS=0 VTHRESH=500E-3
X_FAULT_ch3_U70         FAULT_ch3_N16897773 FAULT_ch3_OCDETX
+  BUF_DELAY_BASIC_GEN PARAMS: VDD=1 VSS=0 VTHRESH=0.5 DELAY=10n
X_FAULT_ch3_U75         OCDET3_DELAYED FAULT_ch3_N16938789 INV_BASIC_GEN
+  PARAMS: VDD=1 VSS=0 VTHRESH=500E-3
X_FAULT_ch3_U26         FAULT_ch3_VOC_TH ISN3 FAULT_ch3_OCDETX_PRE
+  COMPHYS3_BASIC_GEN PARAMS: VDD=1 VSS=0 VTHRESH=0.5 HYS=98.7m
V_FAULT_ch3_V13         FAULT_ch3_VOC_TH SENSE3 154.3m
X_FAULT_ch3_U72         FAULT_ch3_N16911613 VINOK_STARTUP FAULT_ch3_OCDETX_PRE
+  FAULT_ch3_N16897773 AND3_BASIC_GEN PARAMS: VDD=1 VSS=0 VTHRESH=500E-3
V_FAULT_ch3_V11         FAULT_ch3_VSG_TH 0 0.9365
X_FAULT_ch3_U71         CHANNEL3_PWM VINOK_STARTUP FAULT_ch3_CHANNEL_ON
+  AND2_BASIC_GEN PARAMS: VDD=1 VSS=0 VTHRESH=500E-3
X_FAULT_ch3_U85         VINOK_STARTUP DIAG_EN TEMP_SHDWN_B FAULT_ch3_RESET_OC
+  NAND3_BASIC_GEN PARAMS: VDD=1 VSS=0 VTHRESH=500E-3
X_FAULT_ch3_U36         FAULT_ch3_TSG_TIMEOUT FAULT_ch3_N16810232
+  FAULT_ch3_N16811285 OR2_BASIC_GEN PARAMS: VDD=1 VSS=0 VTHRESH=500E-3
X_FAULT_ch3_U19         FAULT_ch3_N16808007 FAULT_ch3_CHANNEL_ON_DEGLITCH
+  BUF_BASIC_GEN PARAMS: VDD=1 VSS=0 VTHRESH=0.5
X_FAULT_ch3_U6         FAULT_ch3_VSG_TH SENSE3 FAULT_ch3_SCDETX_PRE
+  COMPHYS3_BASIC_GEN PARAMS: VDD=1 VSS=0 VTHRESH=0.5 HYS=303.5m
D_FAULT_ch3_D17         FAULT_ch3_N16808007 FAULT_ch3_CHANNEL_ON D_D 
X_FAULT_ch3_U79         DIAG_EN FAULT_ch3_NO_FAULT_DETECT FAULT_ch3_N16911613
+  AND2_BASIC_GEN PARAMS: VDD=1 VSS=0 VTHRESH=500E-3
C_FAULT_ch3_C4         0 FAULT_ch3_N16808007  {1.4427*5u/100k}  TC=0,0 
X_FAULT_ch3_U69         FAULT_ch3_N16944617 FAULT_ch3_SCDETX
+  BUF_DELAY_BASIC_GEN PARAMS: VDD=1 VSS=0 VTHRESH=0.5 DELAY=10n
X_FAULT_ch3_U20         FAULT_ch3_N16916483 FAULT_ch3_TSG_TIMEOUT BUF_BASIC_GEN
+  PARAMS: VDD=1 VSS=0 VTHRESH=0.5
R_FAULT_ch3_R7         FAULT_ch3_CHANNEL_ON FAULT_ch3_N16808007  100k TC=0,0 
X_FAULT_ch3_U67         VINOK_STARTUP FAULT_ch3_CHANNEL_ON_DEGLITCH
+  ISP_ISNX_10MV_CH3 FAULT_ch3_N16810232 AND3_BASIC_GEN PARAMS: VDD=1 VSS=0
+  VTHRESH=500E-3
D_FAULT_ch3_D18         FAULT_ch3_N16916483 FAULT_ch3_N16916458 D_D 
D_FAULT_ch3_F_D_L_OC_D18         FAULT_ch3_F_D_L_OC_N00980
+  FAULT_ch3_F_D_L_OC_N00920 D_D 
C_FAULT_ch3_F_D_L_OC_C5         0 FAULT_ch3_F_D_L_OC_N00980  {1.4427*125u/100k}
+   TC=0,0 
X_FAULT_ch3_F_D_L_OC_U48         FAULT_ch3_F_D_L_OC_FDETX_DEGLITCH_TIME
+  FAULT_ch3_F_D_L_OC_FAULT_RESET OCDET3_DELAYED FAULT_ch3_F_D_L_OC_N22506
+  srlatchrhp_basic_gen PARAMS: VDD=1 VSS=0 VTHRESH=0.5
R_FAULT_ch3_F_D_L_OC_R8         FAULT_ch3_F_D_L_OC_N00920
+  FAULT_ch3_F_D_L_OC_N00980  100k TC=0,0 
X_FAULT_ch3_F_D_L_OC_U381         OC_RETRY_ON_FALLING_CH3
+  FAULT_ch3_F_D_L_OC_N16545 FAULT_ch3_F_D_L_OC_N27400 AND2_BASIC_GEN PARAMS:
+  VDD=1 VSS=0 VTHRESH=500E-3
X_FAULT_ch3_F_D_L_OC_U382         FAULT_ch3_F_D_L_OC_N27400 FAULT_ch3_RESET_OC
+  FAULT_ch3_F_D_L_OC_FAULT_RESET OR2_BASIC_GEN PARAMS: VDD=1 VSS=0
+  VTHRESH=500E-3
R_FAULT_ch3_F_D_L_OC_R9         0 FAULT_ch3_F_D_L_OC_N22506  100k  
X_FAULT_ch3_F_D_L_OC_U67         FAULT_ch3_OCDETX_PRE FAULT_ch3_F_D_L_OC_N16545
+  INV_BASIC_GEN PARAMS: VDD=1 VSS=0 VTHRESH=500E-3
X_FAULT_ch3_F_D_L_OC_U38         VINOK_STARTUP FAULT_ch3_OCDETX
+  FAULT_ch3_F_D_L_OC_N00920 AND2_BASIC_GEN PARAMS: VDD=1 VSS=0 VTHRESH=500E-3
X_FAULT_ch3_F_D_L_OC_U20         FAULT_ch3_F_D_L_OC_N00980
+  FAULT_ch3_F_D_L_OC_FDETX_DEGLITCH_TIME BUF_BASIC_GEN PARAMS: VDD=1 VSS=0
+  VTHRESH=0.5
X_FAULT_ch3_U78         FAULT_ch3_N16811285 FAULT_ch3_NO_FAULT_DETECT
+  FAULT_ch3_SCDETX_PRE FAULT_ch3_N16944617 AND3_BASIC_GEN PARAMS: VDD=1 VSS=0
+  VTHRESH=500E-3
C_FAULT_ch3_C5         0 FAULT_ch3_N16916483  {1.4427*1.1m/100k}  TC=0,0 
R_FAULT_ch3_R8         FAULT_ch3_N16916458 FAULT_ch3_N16916483  100k TC=0,0 
X_U45         FAULT_ASSERT_DEGLITCH N17360613 INV_BASIC_GEN PARAMS: VDD=1 VSS=0
+  VTHRESH=500E-3
V_V15         N16806332 0 3.5
D_D11         N17525845 FAULT_N D_DFB 
E_E5         N16906899 0 ISP ISN1 1
V_V8         N16944625 0 1.24Vdc
V_V19         N16906961 0 10m
V_V21         N17525845 0 70.7mVdc
X_FAULT_ch1_U83         VINOK_STARTUP TEMP_SHDWN_B FAULT_ch1_RESET_SC
+  NAND2_BASIC_GEN PARAMS: VDD=1 VSS=0 VTHRESH=500E-3
D_FAULT_ch1_F_D_L_SC_D18         FAULT_ch1_F_D_L_SC_N00980
+  FAULT_ch1_F_D_L_SC_N00920 D_D 
C_FAULT_ch1_F_D_L_SC_C5         0 FAULT_ch1_F_D_L_SC_N00980  {1.4427*125u/100k}
+   TC=0,0 
X_FAULT_ch1_F_D_L_SC_U48         FAULT_ch1_F_D_L_SC_FDETX_DEGLITCH_TIME
+  FAULT_ch1_F_D_L_SC_FAULT_RESET SCDET1_DELAYED FAULT_ch1_F_D_L_SC_N22506
+  srlatchrhp_basic_gen PARAMS: VDD=1 VSS=0 VTHRESH=0.5
R_FAULT_ch1_F_D_L_SC_R8         FAULT_ch1_F_D_L_SC_N00920
+  FAULT_ch1_F_D_L_SC_N00980  100k TC=0,0 
X_FAULT_ch1_F_D_L_SC_U381         SC_RETRY_ON_FALLING_CH1
+  FAULT_ch1_F_D_L_SC_N16545 FAULT_ch1_F_D_L_SC_N27400 AND2_BASIC_GEN PARAMS:
+  VDD=1 VSS=0 VTHRESH=500E-3
X_FAULT_ch1_F_D_L_SC_U382         FAULT_ch1_F_D_L_SC_N27400 FAULT_ch1_RESET_SC
+  FAULT_ch1_F_D_L_SC_FAULT_RESET OR2_BASIC_GEN PARAMS: VDD=1 VSS=0
+  VTHRESH=500E-3
R_FAULT_ch1_F_D_L_SC_R9         0 FAULT_ch1_F_D_L_SC_N22506  100k  
X_FAULT_ch1_F_D_L_SC_U67         FAULT_ch1_SCDETX_PRE FAULT_ch1_F_D_L_SC_N16545
+  INV_BASIC_GEN PARAMS: VDD=1 VSS=0 VTHRESH=500E-3
X_FAULT_ch1_F_D_L_SC_U38         CHANNEL1_PWM FAULT_ch1_SCDETX
+  FAULT_ch1_F_D_L_SC_N00920 AND2_BASIC_GEN PARAMS: VDD=1 VSS=0 VTHRESH=500E-3
X_FAULT_ch1_F_D_L_SC_U20         FAULT_ch1_F_D_L_SC_N00980
+  FAULT_ch1_F_D_L_SC_FDETX_DEGLITCH_TIME BUF_BASIC_GEN PARAMS: VDD=1 VSS=0
+  VTHRESH=0.5
X_FAULT_ch1_U81         TEMP_SHDWN_B TURN_OFF_ALLCH FAULTB_INT
+  FAULT_ch1_NO_FAULT_DETECT AND3_BASIC_GEN PARAMS: VDD=1 VSS=0 VTHRESH=500E-3
X_FAULT_ch1_U82         FAULT_ch1_N16938789 FAULT_ch1_NO_FAULT_DETECT
+  FAULT_ch1_N16973439 AND2_BASIC_GEN PARAMS: VDD=1 VSS=0 VTHRESH=500E-3
X_FAULT_ch1_U74         CHANNEL1_PWM VINOK_STARTUP FAULT_ch1_N16973439
+  FAULT_ch1_N16916458 AND3_BASIC_GEN PARAMS: VDD=1 VSS=0 VTHRESH=500E-3
X_FAULT_ch1_U70         FAULT_ch1_N16897773 FAULT_ch1_OCDETX
+  BUF_DELAY_BASIC_GEN PARAMS: VDD=1 VSS=0 VTHRESH=0.5 DELAY=10n
X_FAULT_ch1_U75         OCDET1_DELAYED FAULT_ch1_N16938789 INV_BASIC_GEN
+  PARAMS: VDD=1 VSS=0 VTHRESH=500E-3
X_FAULT_ch1_U26         FAULT_ch1_VOC_TH ISN1 FAULT_ch1_OCDETX_PRE
+  COMPHYS3_BASIC_GEN PARAMS: VDD=1 VSS=0 VTHRESH=0.5 HYS=98.7m
V_FAULT_ch1_V13         FAULT_ch1_VOC_TH SENSE1 154.3m
X_FAULT_ch1_U72         FAULT_ch1_N16911613 VINOK_STARTUP FAULT_ch1_OCDETX_PRE
+  FAULT_ch1_N16897773 AND3_BASIC_GEN PARAMS: VDD=1 VSS=0 VTHRESH=500E-3
V_FAULT_ch1_V11         FAULT_ch1_VSG_TH 0 0.9365
X_FAULT_ch1_U71         CHANNEL1_PWM VINOK_STARTUP FAULT_ch1_CHANNEL_ON
+  AND2_BASIC_GEN PARAMS: VDD=1 VSS=0 VTHRESH=500E-3
X_FAULT_ch1_U85         VINOK_STARTUP DIAG_EN TEMP_SHDWN_B FAULT_ch1_RESET_OC
+  NAND3_BASIC_GEN PARAMS: VDD=1 VSS=0 VTHRESH=500E-3
X_FAULT_ch1_U36         FAULT_ch1_TSG_TIMEOUT FAULT_ch1_N16810232
+  FAULT_ch1_N16811285 OR2_BASIC_GEN PARAMS: VDD=1 VSS=0 VTHRESH=500E-3
X_FAULT_ch1_U19         FAULT_ch1_N16808007 FAULT_ch1_CHANNEL_ON_DEGLITCH
+  BUF_BASIC_GEN PARAMS: VDD=1 VSS=0 VTHRESH=0.5
X_FAULT_ch1_U6         FAULT_ch1_VSG_TH SENSE1 FAULT_ch1_SCDETX_PRE
+  COMPHYS3_BASIC_GEN PARAMS: VDD=1 VSS=0 VTHRESH=0.5 HYS=303.5m
D_FAULT_ch1_D17         FAULT_ch1_N16808007 FAULT_ch1_CHANNEL_ON D_D 
X_FAULT_ch1_U79         DIAG_EN FAULT_ch1_NO_FAULT_DETECT FAULT_ch1_N16911613
+  AND2_BASIC_GEN PARAMS: VDD=1 VSS=0 VTHRESH=500E-3
C_FAULT_ch1_C4         0 FAULT_ch1_N16808007  {1.4427*5u/100k}  TC=0,0 
X_FAULT_ch1_U69         FAULT_ch1_N16944617 FAULT_ch1_SCDETX
+  BUF_DELAY_BASIC_GEN PARAMS: VDD=1 VSS=0 VTHRESH=0.5 DELAY=10n
X_FAULT_ch1_U20         FAULT_ch1_N16916483 FAULT_ch1_TSG_TIMEOUT BUF_BASIC_GEN
+  PARAMS: VDD=1 VSS=0 VTHRESH=0.5
R_FAULT_ch1_R7         FAULT_ch1_CHANNEL_ON FAULT_ch1_N16808007  100k TC=0,0 
X_FAULT_ch1_U67         VINOK_STARTUP FAULT_ch1_CHANNEL_ON_DEGLITCH
+  ISP_ISNX_10MV_CH1 FAULT_ch1_N16810232 AND3_BASIC_GEN PARAMS: VDD=1 VSS=0
+  VTHRESH=500E-3
D_FAULT_ch1_D18         FAULT_ch1_N16916483 FAULT_ch1_N16916458 D_D 
D_FAULT_ch1_F_D_L_OC_D18         FAULT_ch1_F_D_L_OC_N00980
+  FAULT_ch1_F_D_L_OC_N00920 D_D 
C_FAULT_ch1_F_D_L_OC_C5         0 FAULT_ch1_F_D_L_OC_N00980  {1.4427*125u/100k}
+   TC=0,0 
X_FAULT_ch1_F_D_L_OC_U48         FAULT_ch1_F_D_L_OC_FDETX_DEGLITCH_TIME
+  FAULT_ch1_F_D_L_OC_FAULT_RESET OCDET1_DELAYED FAULT_ch1_F_D_L_OC_N22506
+  srlatchrhp_basic_gen PARAMS: VDD=1 VSS=0 VTHRESH=0.5
R_FAULT_ch1_F_D_L_OC_R8         FAULT_ch1_F_D_L_OC_N00920
+  FAULT_ch1_F_D_L_OC_N00980  100k TC=0,0 
X_FAULT_ch1_F_D_L_OC_U381         OC_RETRY_ON_FALLING_CH1
+  FAULT_ch1_F_D_L_OC_N16545 FAULT_ch1_F_D_L_OC_N27400 AND2_BASIC_GEN PARAMS:
+  VDD=1 VSS=0 VTHRESH=500E-3
X_FAULT_ch1_F_D_L_OC_U382         FAULT_ch1_F_D_L_OC_N27400 FAULT_ch1_RESET_OC
+  FAULT_ch1_F_D_L_OC_FAULT_RESET OR2_BASIC_GEN PARAMS: VDD=1 VSS=0
+  VTHRESH=500E-3
R_FAULT_ch1_F_D_L_OC_R9         0 FAULT_ch1_F_D_L_OC_N22506  100k  
X_FAULT_ch1_F_D_L_OC_U67         FAULT_ch1_OCDETX_PRE FAULT_ch1_F_D_L_OC_N16545
+  INV_BASIC_GEN PARAMS: VDD=1 VSS=0 VTHRESH=500E-3
X_FAULT_ch1_F_D_L_OC_U38         VINOK_STARTUP FAULT_ch1_OCDETX
+  FAULT_ch1_F_D_L_OC_N00920 AND2_BASIC_GEN PARAMS: VDD=1 VSS=0 VTHRESH=500E-3
X_FAULT_ch1_F_D_L_OC_U20         FAULT_ch1_F_D_L_OC_N00980
+  FAULT_ch1_F_D_L_OC_FDETX_DEGLITCH_TIME BUF_BASIC_GEN PARAMS: VDD=1 VSS=0
+  VTHRESH=0.5
X_FAULT_ch1_U78         FAULT_ch1_N16811285 FAULT_ch1_NO_FAULT_DETECT
+  FAULT_ch1_SCDETX_PRE FAULT_ch1_N16944617 AND3_BASIC_GEN PARAMS: VDD=1 VSS=0
+  VTHRESH=500E-3
C_FAULT_ch1_C5         0 FAULT_ch1_N16916483  {1.4427*1.1m/100k}  TC=0,0 
R_FAULT_ch1_R8         FAULT_ch1_N16916458 FAULT_ch1_N16916483  100k TC=0,0 
X_U35         N16906899 N16906961 ISP_ISNX_10MV_CH1 COMP_BASIC_GEN PARAMS:
+  VDD=1 VSS=0 VTHRESH=0.5
V_V9         N227091 0 172
X_U17         FAULT_ASSERT_DEGLITCH FAULTB_INT EXT_H AND2_BASIC_GEN PARAMS:
+  VDD=1 VSS=0 VTHRESH=500E-3
G_ABMII2         IN FAULT_N VALUE { IF(V(VINOK_STARTUP)>0.5, 8u,0)    }
R_R13         GND 0  1m  
E_ABM6         REFERENCE 0 VALUE { IF(V(VINOK_STARTUP)>0.5, {Vref},{Vref})    }
R_R11         VINOK N16806338  100k TC=0,0 
X_U20         N227141 TH_SHDWN_DELAYED BUF_BASIC_GEN PARAMS: VDD=1 VSS=0
+  VTHRESH=0.5
X_FAULT_ch2_U83         VINOK_STARTUP TEMP_SHDWN_B FAULT_ch2_RESET_SC
+  NAND2_BASIC_GEN PARAMS: VDD=1 VSS=0 VTHRESH=500E-3
D_FAULT_ch2_F_D_L_SC_D18         FAULT_ch2_F_D_L_SC_N00980
+  FAULT_ch2_F_D_L_SC_N00920 D_D 
C_FAULT_ch2_F_D_L_SC_C5         0 FAULT_ch2_F_D_L_SC_N00980  {1.4427*125u/100k}
+   TC=0,0 
X_FAULT_ch2_F_D_L_SC_U48         FAULT_ch2_F_D_L_SC_FDETX_DEGLITCH_TIME
+  FAULT_ch2_F_D_L_SC_FAULT_RESET SCDET2_DELAYED FAULT_ch2_F_D_L_SC_N22506
+  srlatchrhp_basic_gen PARAMS: VDD=1 VSS=0 VTHRESH=0.5
R_FAULT_ch2_F_D_L_SC_R8         FAULT_ch2_F_D_L_SC_N00920
+  FAULT_ch2_F_D_L_SC_N00980  100k TC=0,0 
X_FAULT_ch2_F_D_L_SC_U381         SC_RETRY_ON_FALLING_CH2
+  FAULT_ch2_F_D_L_SC_N16545 FAULT_ch2_F_D_L_SC_N27400 AND2_BASIC_GEN PARAMS:
+  VDD=1 VSS=0 VTHRESH=500E-3
X_FAULT_ch2_F_D_L_SC_U382         FAULT_ch2_F_D_L_SC_N27400 FAULT_ch2_RESET_SC
+  FAULT_ch2_F_D_L_SC_FAULT_RESET OR2_BASIC_GEN PARAMS: VDD=1 VSS=0
+  VTHRESH=500E-3
R_FAULT_ch2_F_D_L_SC_R9         0 FAULT_ch2_F_D_L_SC_N22506  100k  
X_FAULT_ch2_F_D_L_SC_U67         FAULT_ch2_SCDETX_PRE FAULT_ch2_F_D_L_SC_N16545
+  INV_BASIC_GEN PARAMS: VDD=1 VSS=0 VTHRESH=500E-3
X_FAULT_ch2_F_D_L_SC_U38         CHANNEL2_PWM FAULT_ch2_SCDETX
+  FAULT_ch2_F_D_L_SC_N00920 AND2_BASIC_GEN PARAMS: VDD=1 VSS=0 VTHRESH=500E-3
X_FAULT_ch2_F_D_L_SC_U20         FAULT_ch2_F_D_L_SC_N00980
+  FAULT_ch2_F_D_L_SC_FDETX_DEGLITCH_TIME BUF_BASIC_GEN PARAMS: VDD=1 VSS=0
+  VTHRESH=0.5
X_FAULT_ch2_U81         TEMP_SHDWN_B TURN_OFF_ALLCH FAULTB_INT
+  FAULT_ch2_NO_FAULT_DETECT AND3_BASIC_GEN PARAMS: VDD=1 VSS=0 VTHRESH=500E-3
X_FAULT_ch2_U82         FAULT_ch2_N16938789 FAULT_ch2_NO_FAULT_DETECT
+  FAULT_ch2_N16973439 AND2_BASIC_GEN PARAMS: VDD=1 VSS=0 VTHRESH=500E-3
X_FAULT_ch2_U74         CHANNEL2_PWM VINOK_STARTUP FAULT_ch2_N16973439
+  FAULT_ch2_N16916458 AND3_BASIC_GEN PARAMS: VDD=1 VSS=0 VTHRESH=500E-3
X_FAULT_ch2_U70         FAULT_ch2_N16897773 FAULT_ch2_OCDETX
+  BUF_DELAY_BASIC_GEN PARAMS: VDD=1 VSS=0 VTHRESH=0.5 DELAY=10n
X_FAULT_ch2_U75         OCDET2_DELAYED FAULT_ch2_N16938789 INV_BASIC_GEN
+  PARAMS: VDD=1 VSS=0 VTHRESH=500E-3
X_FAULT_ch2_U26         FAULT_ch2_VOC_TH ISN2 FAULT_ch2_OCDETX_PRE
+  COMPHYS3_BASIC_GEN PARAMS: VDD=1 VSS=0 VTHRESH=0.5 HYS=98.7m
V_FAULT_ch2_V13         FAULT_ch2_VOC_TH SENSE2 154.3m
X_FAULT_ch2_U72         FAULT_ch2_N16911613 VINOK_STARTUP FAULT_ch2_OCDETX_PRE
+  FAULT_ch2_N16897773 AND3_BASIC_GEN PARAMS: VDD=1 VSS=0 VTHRESH=500E-3
V_FAULT_ch2_V11         FAULT_ch2_VSG_TH 0 0.9365
X_FAULT_ch2_U71         CHANNEL2_PWM VINOK_STARTUP FAULT_ch2_CHANNEL_ON
+  AND2_BASIC_GEN PARAMS: VDD=1 VSS=0 VTHRESH=500E-3
X_FAULT_ch2_U85         VINOK_STARTUP DIAG_EN TEMP_SHDWN_B FAULT_ch2_RESET_OC
+  NAND3_BASIC_GEN PARAMS: VDD=1 VSS=0 VTHRESH=500E-3
X_FAULT_ch2_U36         FAULT_ch2_TSG_TIMEOUT FAULT_ch2_N16810232
+  FAULT_ch2_N16811285 OR2_BASIC_GEN PARAMS: VDD=1 VSS=0 VTHRESH=500E-3
X_FAULT_ch2_U19         FAULT_ch2_N16808007 FAULT_ch2_CHANNEL_ON_DEGLITCH
+  BUF_BASIC_GEN PARAMS: VDD=1 VSS=0 VTHRESH=0.5
X_FAULT_ch2_U6         FAULT_ch2_VSG_TH SENSE2 FAULT_ch2_SCDETX_PRE
+  COMPHYS3_BASIC_GEN PARAMS: VDD=1 VSS=0 VTHRESH=0.5 HYS=303.5m
D_FAULT_ch2_D17         FAULT_ch2_N16808007 FAULT_ch2_CHANNEL_ON D_D 
X_FAULT_ch2_U79         DIAG_EN FAULT_ch2_NO_FAULT_DETECT FAULT_ch2_N16911613
+  AND2_BASIC_GEN PARAMS: VDD=1 VSS=0 VTHRESH=500E-3
C_FAULT_ch2_C4         0 FAULT_ch2_N16808007  {1.4427*5u/100k}  TC=0,0 
X_FAULT_ch2_U69         FAULT_ch2_N16944617 FAULT_ch2_SCDETX
+  BUF_DELAY_BASIC_GEN PARAMS: VDD=1 VSS=0 VTHRESH=0.5 DELAY=10n
X_FAULT_ch2_U20         FAULT_ch2_N16916483 FAULT_ch2_TSG_TIMEOUT BUF_BASIC_GEN
+  PARAMS: VDD=1 VSS=0 VTHRESH=0.5
R_FAULT_ch2_R7         FAULT_ch2_CHANNEL_ON FAULT_ch2_N16808007  100k TC=0,0 
X_FAULT_ch2_U67         VINOK_STARTUP FAULT_ch2_CHANNEL_ON_DEGLITCH
+  ISP_ISNX_10MV_CH2 FAULT_ch2_N16810232 AND3_BASIC_GEN PARAMS: VDD=1 VSS=0
+  VTHRESH=500E-3
D_FAULT_ch2_D18         FAULT_ch2_N16916483 FAULT_ch2_N16916458 D_D 
D_FAULT_ch2_F_D_L_OC_D18         FAULT_ch2_F_D_L_OC_N00980
+  FAULT_ch2_F_D_L_OC_N00920 D_D 
C_FAULT_ch2_F_D_L_OC_C5         0 FAULT_ch2_F_D_L_OC_N00980  {1.4427*125u/100k}
+   TC=0,0 
X_FAULT_ch2_F_D_L_OC_U48         FAULT_ch2_F_D_L_OC_FDETX_DEGLITCH_TIME
+  FAULT_ch2_F_D_L_OC_FAULT_RESET OCDET2_DELAYED FAULT_ch2_F_D_L_OC_N22506
+  srlatchrhp_basic_gen PARAMS: VDD=1 VSS=0 VTHRESH=0.5
R_FAULT_ch2_F_D_L_OC_R8         FAULT_ch2_F_D_L_OC_N00920
+  FAULT_ch2_F_D_L_OC_N00980  100k TC=0,0 
X_FAULT_ch2_F_D_L_OC_U381         OC_RETRY_ON_FALLING_CH2
+  FAULT_ch2_F_D_L_OC_N16545 FAULT_ch2_F_D_L_OC_N27400 AND2_BASIC_GEN PARAMS:
+  VDD=1 VSS=0 VTHRESH=500E-3
X_FAULT_ch2_F_D_L_OC_U382         FAULT_ch2_F_D_L_OC_N27400 FAULT_ch2_RESET_OC
+  FAULT_ch2_F_D_L_OC_FAULT_RESET OR2_BASIC_GEN PARAMS: VDD=1 VSS=0
+  VTHRESH=500E-3
R_FAULT_ch2_F_D_L_OC_R9         0 FAULT_ch2_F_D_L_OC_N22506  100k  
X_FAULT_ch2_F_D_L_OC_U67         FAULT_ch2_OCDETX_PRE FAULT_ch2_F_D_L_OC_N16545
+  INV_BASIC_GEN PARAMS: VDD=1 VSS=0 VTHRESH=500E-3
X_FAULT_ch2_F_D_L_OC_U38         VINOK_STARTUP FAULT_ch2_OCDETX
+  FAULT_ch2_F_D_L_OC_N00920 AND2_BASIC_GEN PARAMS: VDD=1 VSS=0 VTHRESH=500E-3
X_FAULT_ch2_F_D_L_OC_U20         FAULT_ch2_F_D_L_OC_N00980
+  FAULT_ch2_F_D_L_OC_FDETX_DEGLITCH_TIME BUF_BASIC_GEN PARAMS: VDD=1 VSS=0
+  VTHRESH=0.5
X_FAULT_ch2_U78         FAULT_ch2_N16811285 FAULT_ch2_NO_FAULT_DETECT
+  FAULT_ch2_SCDETX_PRE FAULT_ch2_N16944617 AND3_BASIC_GEN PARAMS: VDD=1 VSS=0
+  VTHRESH=500E-3
C_FAULT_ch2_C5         0 FAULT_ch2_N16916483  {1.4427*1.1m/100k}  TC=0,0 
R_FAULT_ch2_R8         FAULT_ch2_N16916458 FAULT_ch2_N16916483  100k TC=0,0 
D_D10         FAULT_N N196972 D_DFB 
R_C_C_D_ch2_R1         C_C_D_ch2_N148172 C_C_D_ch2_VISNS  1  
X_C_C_D_ch2_U2         C_C_D_ch2_1K_SIG_ACTIV_PRE C_C_D_ch2_1K_SIG_ACTIV
+  one_shot PARAMS:  T=50000  
C_C_C_D_ch2_C2         0 C_C_D_ch2_VISNS  {1/(2*3.142*f1)}  
D_C_C_D_ch2_D12         G2 CPOUT D_D 
X_C_C_D_ch2_U13         VINOK_STARTUP TURN_OFF_CHANNEL_CH2 TEMP_SHDWN_B
+  C_C_D_ch2_N230355 AND3_BASIC_GEN PARAMS: VDD=1 VSS=0 VTHRESH=500E-3
D_C_C_D_ch2_D13         0 G2 D_D 
E_C_C_D_ch2_E1         C_C_D_ch2_N148172 0 ISP ISN2 {gain1}
X_C_C_D_ch2_S4    C_C_D_ch2_1K_SIG_ACTIV 0 G2 0
+  Constant_current_driver_new_C_C_D_ch2_S4 
X_C_C_D_ch2_U14         FAULTB_INT C_C_D_ch2_N230355 TURN_OFF_ALLCH
+  C_C_D_ch2_200K_SIG_ACTIV AND3_BASIC_GEN PARAMS: VDD=1 VSS=0 VTHRESH=500E-3
D_C_C_D_ch2_D10         G2 C_C_D_ch2_N00860 D_D 
X_C_C_D_ch2_U3         C_C_D_ch2_N499817 C_C_D_ch2_OC_RETRY_ON_D
+  C_C_D_ch2_SC_RETRY_ON_D C_C_D_ch2_1K_SIG_ACTIV_PRE NOR3_BASIC_GEN PARAMS:
+  VDD=1 VSS=0 VTHRESH=500E-3
D_C_C_D_ch2_D11         C_C_D_ch2_N00870 G2 D_D 
V_C_C_D_ch2_V1         C_C_D_ch2_N00860 SENSE2 12
D_C_C_D_ch2_D14         0 SENSE2 D_D 
X_C_C_D_ch2_U28         TURN_OFF_CHANNEL_CH2 TEMP_SHDWN_B TURN_OFF_ALLCH
+  C_C_D_ch2_N499817 AND3_BASIC_GEN PARAMS: VDD=1 VSS=0 VTHRESH=500E-3
R_C_C_D_ch2_R3         G2 0  1G TC=0,0 
X_C_C_D_ch2_S6    SENSE2 0 C_C_D_ch2_200K_SIG_ACTIV 0
+  Constant_current_driver_new_C_C_D_ch2_S6 
X_C_C_D_ch2_U11         OC_RETRY_ON_CH2 C_C_D_ch2_OC_RETRY_ON_D