* TPSI3050
*****************************************************************************
* (C) Copyright 2023 Texas Instruments Incorporated. All rights reserved.
* TI Confidential - Selective Disclosure
*****************************************************************************
** This model is designed as an aid for customers of Texas Instruments.
** TI and its licensors and suppliers make no warranties, either expressed
** or implied, with respect to this model, including the warranties of
** merchantability or fitness for a particular purpose. The model is
** provided solely on an "as is" basis. The entire risk as to its quality
** and performance is with the customer
*****************************************************************************
*
** Released by: WEBENCH Design Center, Texas Instruments Inc.
* Part: TPSI3050
* Date: 27APR2023
* Model Type: Transient
* Simulator: PSpice
* Simulator Version: 17.4-2019 S008
* Datasheet: SLVSFJ7
* Model Version: 1.05
*
*****************************************************************************
* Updates:
*
* 1.00 Initial release
* 1.01 Updated netlist.
* 1.02 Updated netlist. Changed name of DUTY to PXFR.
* 1.03 Updated converter model. 
* 1.04 Updated converter model. Updated POR logic.
* 1.05 Update to improve convergence issues. Improved power model.
*****************************************************************************
*$
.subckt TPSI3050 EN PXFR VDDP VSSP VDRV VDDH VDDM VSSS
* source TPSI3050
V_U1_UPRIM_VEN_CURRENT         EN U1_UPRIM_N368103 0Vdc
M_U1_UPRIM_MN1         U1_UPRIM_N368103 VSSP VSSP VSSP MbreakN  
+ L=0.15u  
+ W=600u         
X_U1_UPRIM_E7    VSSP VSSP VDDP_X VDDP PRIMARY_DIE_U1_UPRIM_E7 
R_U1_UPRIM_R1         VSSP U1_UPRIM_N368103  2Meg TC=0,0 
G_U1_UPRIM_IDC_DC         VDDM VSSS VALUE { -V(U1_UPRIM_N387420, VSSP)*
+ {EFFICIENCY}* (((V(VDDP)-V(VSSP))*4.81765e-3+16.642e-3)-75e-6) }
X_U1_UPRIM_E9    VSSP VSSP VDDP_D VDDP PRIMARY_DIE_U1_UPRIM_E9 
X_U1_UPRIM_UMODE_U134         U1_UPRIM_SEL_Q5 U1_UPRIM_BURST_STARTUP_DONE
+  U1_UPRIM_UMODE_N407703  $G_DPWR $G_DGND AND2
X_U1_UPRIM_UMODE_VREF_SEL_S7    U1_UPRIM_N368103 VSSP
+  U1_UPRIM_UMODE_VREF_SEL_N378180 VSSP VREF_SYS_U1_UPRIM_UMODE_VREF_SEL_S7 
R_U1_UPRIM_UMODE_VREF_SEL_R6         U1_UPRIM_UMODE_EN_2PIN_REF AVDD  100k
+  TC=0,0 
R_U1_UPRIM_UMODE_VREF_SEL_R4         U1_UPRIM_UMODE_VREF_SEL_N378180 AVDD  100k
+  TC=0,0 
X_U1_UPRIM_UMODE_VREF_SEL_S8    U1_UPRIM_UMODE_VREF_SEL_N378180 VSSP
+  U1_UPRIM_UMODE_EN_2PIN_REF VSSP VREF_SYS_U1_UPRIM_UMODE_VREF_SEL_S8 
D_U1_UPRIM_UMODE_VREF_SEL_D2         VDDP U1_UPRIM_UMODE_VREF_SYS Dbreak 
D_U1_UPRIM_UMODE_VREF_SEL_D1         U1_UPRIM_N368103 U1_UPRIM_UMODE_VREF_SYS
+  Dbreak 
R_U1_UPRIM_UMODE_VREF_SEL_R7         VSSP U1_UPRIM_UMODE_VREF_SYS  200k TC=0,0 
X_U1_UPRIM_UMODE_U142         U1_UPRIM_SEL_Q0 U1_UPRIM_BURST_STARTUP_DONE
+  U1_UPRIM_UMODE_N407831  $G_DPWR $G_DGND AND2
X_U1_UPRIM_UMODE_U135         U1_UPRIM_SEL_Q4 U1_UPRIM_UMODE_N407327
+  U1_UPRIM_UMODE_SEL4  $G_DPWR $G_DGND AND2
G_U1_UPRIM_UMODE_GVDDP_Q         U1_UPRIM_UMODE_VREF_SYS VSSP TABLE {
+  V(U1_UPRIM_UMODE_VREF_SYS, VSSP) } 
+ ( (1, 10e-6) (2,20e-6) (3, 150e-6) (6, 160e-6) )
X_U1_UPRIM_UMODE_U140         U1_UPRIM_EN_2PIN_SYNC U1_UPRIM_UMODE_2PIN_SYNCZ 
+  $G_DPWR $G_DGND INV
X_U1_UPRIM_UMODE_U130         U1_UPRIM_BURST_STARTUP_DONE
+  U1_UPRIM_UMODE_N407797  $G_DPWR $G_DGND INV
X_U1_UPRIM_UMODE_U151         VSSP U1_UPRIM_UMODE_N605842 shunt_vddp PARAMS: 
X_U1_UPRIM_UMODE_U136         U1_UPRIM_SEL_Q3 U1_UPRIM_UMODE_N407327
+  U1_UPRIM_UMODE_SEL3  $G_DPWR $G_DGND AND2
X_U1_UPRIM_UMODE_U147         PXFR U1_UPRIM_SEL0 U1_UPRIM_SEL1 U1_UPRIM_SEL2
+  U1_UPRIM_SEL3 U1_UPRIM_SEL4 U1_UPRIM_SEL5 U1_UPRIM_SEL6 VSSP MODE_SEL_FUNC 
X_U1_UPRIM_UMODE_U126         U1_UPRIM_UMODE_N407831 U1_UPRIM_UMODE_EN_2PIN
+  U1_UPRIM_UMODE_SEL0 $G_DPWR $G_DGND OR2
G_U1_UPRIM_UMODE_G7         U1_UPRIM_UMODE_VREF_SYS PXFR TABLE {
+  V(U1_UPRIM_DIS_CONFIG, 0) } 
+ ( (1,65e-6) (3, 0) )
X_U1_UPRIM_UMODE_U139         U1_UPRIM_UMODE_2PIN_SYNCZ
+  U1_UPRIM_BURST_STARTUP_DONE U1_UPRIM_UMODE_N407327  $G_DPWR $G_DGND AND2
X_U1_UPRIM_UMODE_U137         U1_UPRIM_SEL_Q2 U1_UPRIM_UMODE_N407327
+  U1_UPRIM_UMODE_SEL2  $G_DPWR $G_DGND AND2
X_U1_UPRIM_UMODE_U145         U1_UPRIM_UMODE_2PIN_SYNCZ U1_UPRIM_UMODE_EN_2PIN 
+  $G_DPWR $G_DGND INV
X_U1_UPRIM_UMODE_U131         VSSP U1_UPRIM_UMODE_N407327 U1_UPRIM_UMODE_SEL7 
+  $G_DPWR $G_DGND AND2
X_U1_UPRIM_UMODE_U141         U1_UPRIM_UMODE_N407703 U1_UPRIM_UMODE_N407797
+  U1_UPRIM_UMODE_N407861 $G_DPWR $G_DGND OR2
X_U1_UPRIM_UMODE_U143         U1_UPRIM_UMODE_N407861 U1_UPRIM_UMODE_2PIN_SYNCZ
+  U1_UPRIM_UMODE_SEL5  $G_DPWR $G_DGND AND2
X_U1_UPRIM_UMODE_ULS1_U335         U1_UPRIM_UMODE_ULS1_N569698
+  U1_UPRIM_EN_2PIN_DIG  $G_DPWR $G_DGND INV
X_U1_UPRIM_UMODE_ULS1_S22    U1_UPRIM_UMODE_EN_2PIN_REF VSSP
+  U1_UPRIM_UMODE_ULS1_N569698 0 VDDP_DIG_LEVEL_SHIFT_U1_UPRIM_UMODE_ULS1_S22 
R_U1_UPRIM_UMODE_ULS1_R15         U1_UPRIM_UMODE_ULS1_N569698 TIE_HIGH  10k
+  TC=0,0 
X_U1_UPRIM_UMODE_U138         U1_UPRIM_SEL_Q1 U1_UPRIM_UMODE_N407327
+  U1_UPRIM_UMODE_SEL1  $G_DPWR $G_DGND AND2
X_U1_UPRIM_UMODE_S20    U1_UPRIM_UMODE_EN_2PIN_REF VSSP VDDP
+  U1_UPRIM_UMODE_N605842 MODE_SELECT_U1_UPRIM_UMODE_S20 
X_U1_UPRIM_UMODE_U133         U1_UPRIM_SEL_Q6 U1_UPRIM_UMODE_N407327
+  U1_UPRIM_UMODE_SEL6  $G_DPWR $G_DGND AND2
R_U1_UPRIM_UMODE_RIEN         U1_UPRIM_UMODE_N1014841 U1_UPRIM_UMODE_VREF_SYS 
+  0.001 TC=0,0 
X_U1_UPRIM_UMODE_S16    U1_UPRIM_UMODE_N1009562 0 U1_UPRIM_UMODE_RESETZ_VSSP
+  VSSP MODE_SELECT_U1_UPRIM_UMODE_S16 
X_U1_UPRIM_UMODE_U281         U1_UPRIM_RESETZ_SYNC U1_UPRIM_UMODE_N1009562 
+  $G_DPWR $G_DGND INV
R_U1_UPRIM_UMODE_R15         U1_UPRIM_UMODE_N1009562 TIE_HIGH  100k TC=0,0 
R_U1_UPRIM_UMODE_R16         U1_UPRIM_UMODE_RESETZ_VSSP VDDP_X  100k TC=0,0 
X_U1_UPRIM_UMODE_U283         U1_OOK U1_UPRIM_UMODE_N1016582  $G_DPWR $G_DGND
+  INV
X_U1_UPRIM_UMODE_U285         VSSP VDDP U1_UPRIM_UMODE_N1016586
+  U1_UPRIM_EN_2PIN_DIG U1_UPRIM_UMODE_EN_2PIN U1_UPRIM_UMODE_RESETZ_VSSP
+  U1_UPRIM_UMODE_SEL0 U1_UPRIM_UMODE_SEL1 U1_UPRIM_UMODE_SEL2
+  U1_UPRIM_UMODE_SEL3 U1_UPRIM_UMODE_SEL4 U1_UPRIM_UMODE_SEL5
+  U1_UPRIM_UMODE_SEL6 U1_UPRIM_SEL_Q0 U1_UPRIM_SEL_Q1 U1_UPRIM_SEL_Q2
+  U1_UPRIM_SEL_Q3 U1_UPRIM_SEL_Q4 U1_UPRIM_SEL_Q5 U1_UPRIM_SEL_Q6
+  U1_UPRIM_N54535 U1_UPRIM_UMODE_N1014841 MODE_SELECT 
X_U1_UPRIM_UMODE_U284         U1_UPRIM_UMODE_N1016582 U1_UPRIM_UMODE_N1016586 
+  $G_DPWR $G_DGND INV
E_U1_UPRIM_E2         U1_UPRIM_N372368 VSSP TABLE { V(U1_OOK, 0) } 
+ ( (0.5,0) (1,1) )
X_U1_UPRIM_U3_U7_U122         U1_UPRIM_U3_U7_EN_DETECT_R
+  U1_UPRIM_U3_U7_EN_DETECT_F U1_UPRIM_U3_U7_EN_DETECT $G_DPWR $G_DGND OR2
X_U1_UPRIM_U3_U7_U125         U1_UPRIM_U3_EN_DETECT_SYNC U1_UPRIM_CLK_DIG
+  U1_UPRIM_U3_U7_N236442 U1_UPRIM_U3_U7_N381947 M_UN0001 $G_DPWR $G_DGND DFFR
X_U1_UPRIM_U3_U7_U121         U1_UPRIM_U3_U7_N287098 U1_UPRIM_U3_EN_DETECT_SYNC
+  U1_UPRIM_U3_U7_N287335 $G_DPWR $G_DGND OR2
X_U1_UPRIM_U3_U7_U119         TIE_HIGH U1_UPRIM_U3_U7_N295827
+  U1_UPRIM_U3_U7_N236076 U1_UPRIM_U3_U7_EN_DETECT_F M_UN0002 $G_DPWR $G_DGND
+  DFFR
X_U1_UPRIM_U3_U7_U124         U1_UPRIM_U3_U7_EN_DETECT_F U1_UPRIM_CLK_DIG
+  U1_UPRIM_U3_U7_N236442 U1_UPRIM_U3_EN_DETECT_F_SYNC M_UN0003 $G_DPWR $G_DGND
+  DFFR
X_U1_UPRIM_U3_U7_U123         U1_UPRIM_U3_U7_EN_DETECT_R U1_UPRIM_CLK_DIG
+  U1_UPRIM_U3_U7_N236442 U1_UPRIM_U3_EN_DETECT_R_SYNC M_UN0004 $G_DPWR $G_DGND
+  DFFR
X_U1_UPRIM_U3_U7_U116         U1_UPRIM_U3_U7_N287335 U1_UPRIM_U3_U7_N236076 
+  $G_DPWR $G_DGND INV
X_U1_UPRIM_U3_U7_U113         U1_UPRIM_RESETZ_SYNC U1_UPRIM_U3_U7_N287098 
+  $G_DPWR $G_DGND INV
X_U1_UPRIM_U3_U7_U120         U1_UPRIM_U3_U7_EN_DETECT U1_UPRIM_CLK_DIG
+  U1_UPRIM_U3_U7_N236442 U1_UPRIM_U3_EN_DETECT_SYNC M_UN0005 $G_DPWR $G_DGND
+  DFFR
X_U1_UPRIM_U3_U7_U118         U1_UPRIM_U3_U7_N287098 U1_UPRIM_U3_U7_N236442 
+  $G_DPWR $G_DGND INV
X_U1_UPRIM_U3_U7_U73         TIE_HIGH U1_UPRIM_U3_EN_SYNC
+  U1_UPRIM_U3_U7_N236076 U1_UPRIM_U3_U7_EN_DETECT_R M_UN0006 $G_DPWR $G_DGND
+  DFFR
X_U1_UPRIM_U3_U7_U114         U1_UPRIM_U3_EN_SYNC U1_UPRIM_U3_U7_N295827 
+  $G_DPWR $G_DGND INV
X_U1_UPRIM_U3_U6_U2_U9         U1_UPRIM_U3_U6_NEXTSTATE1 U1_UPRIM_CLK_DIG
+  TIE_HIGH U1_UPRIM_RESETZ_SYNC U1_UPRIM_U3_U6_STATE1 M_UN0007 $G_DPWR $G_DGND
+  DFFCR
X_U1_UPRIM_U3_U6_U2_U8         U1_UPRIM_U3_U6_NEXTSTATE0 U1_UPRIM_CLK_DIG
+  TIE_HIGH U1_UPRIM_RESETZ_SYNC U1_UPRIM_U3_U6_STATE0 M_UN0008 $G_DPWR $G_DGND
+  DFFCR
X_U1_UPRIM_U3_U6_U2_U10         U1_UPRIM_U3_U6_NEXTSTATE2 U1_UPRIM_CLK_DIG
+  TIE_HIGH U1_UPRIM_RESETZ_SYNC U1_UPRIM_U3_U6_STATE2 M_UN0009 $G_DPWR $G_DGND
+  DFFCR
X_U1_UPRIM_U3_U6_U1_U358         U1_UPRIM_U3_U6_U1_N213257
+  U1_UPRIM_U3_U6_U1_N213411 U1_UPRIM_U3_U6_U1_N213603 U1_UPRIM_U3_U6_U1_N392980
+  $G_DPWR $G_DGND AND3
X_U1_UPRIM_U3_U6_U1_U346         U1_UPRIM_U3_U6_U1_N392980
+  U1_UPRIM_U3_U6_U1_N213761 U1_UPRIM_U3_U6_U1_N393518  $G_DPWR $G_DGND AND2
X_U1_UPRIM_U3_U6_U1_U355         U1_UPRIM_U3_U6_U1_N211685
+  U1_UPRIM_U3_U6_U1_N211927 U1_UPRIM_U3_U6_U1_N211927 U1_UPRIM_U3_U6_U1_N377212
+  $G_DPWR $G_DGND AND3
X_U1_UPRIM_U3_U6_U1_U307         U1_UPRIM_U3_VDDP_H_SYNC
+  U1_UPRIM_U3_U6_U1_VDDP_H_SYNC_B  $G_DPWR $G_DGND INV
X_U1_UPRIM_U3_U6_U1_U372         U1_UPRIM_U3_U6_U1_N536515
+  U1_UPRIM_U3_U6_U1_N211903 U1_UPRIM_U3_U6_U1_N209307 $G_DPWR $G_DGND OR2
X_U1_UPRIM_U3_U6_U1_U340         U1_UPRIM_U3_U6_U1_N381525
+  U1_UPRIM_U3_U6_U1_N212353 U1_UPRIM_U3_U6_U1_TON_START_2_TON_START  $G_DPWR
+  $G_DGND AND2
X_U1_UPRIM_U3_U6_U1_UM17_U319         U1_UPRIM_U3_U6_U1_UM17_N561645
+  U1_UPRIM_U3_U6_U1_UM17_N561701 U1_UPRIM_U3_U6_U1_N616235 $G_DPWR $G_DGND OR2
X_U1_UPRIM_U3_U6_U1_UM17_U313         U1_UPRIM_U3_U6_U1_UM17_N560952
+  U1_UPRIM_U3_U6_U1_UM17_N560959 U1_UPRIM_U3_U6_U1_N538758 $G_DPWR $G_DGND OR2
X_U1_UPRIM_U3_U6_U1_UM17_U315         0 U1_UPRIM_U3_U6_U1_UM17_N561822
+  U1_UPRIM_U3_U6_U1_UM17_N561305  $G_DPWR $G_DGND AND2
X_U1_UPRIM_U3_U6_U1_UM17_U317         0
+  U1_UPRIM_U3_U6_U1_TON_COMPLETE_2_TON_COMPLETE U1_UPRIM_U3_U6_U1_UM17_N561361 
+  $G_DPWR $G_DGND AND2
X_U1_UPRIM_U3_U6_U1_UM17_U311        
+  U1_UPRIM_U3_U6_U1_TON_COMPLETE_2_TON_COMPLETE U1_UPRIM_U3_U6_U1_UM17_N561822 
+  $G_DPWR $G_DGND INV
X_U1_UPRIM_U3_U6_U1_UM17_U314         TIE_HIGH
+  U1_UPRIM_U3_U6_U1_TON_COMPLETE_2_TON_COMPLETE U1_UPRIM_U3_U6_U1_UM17_N560959 
+  $G_DPWR $G_DGND AND2
X_U1_UPRIM_U3_U6_U1_UM17_U312         0 U1_UPRIM_U3_U6_U1_UM17_N561822
+  U1_UPRIM_U3_U6_U1_UM17_N560952  $G_DPWR $G_DGND AND2
X_U1_UPRIM_U3_U6_U1_UM17_U318         0 U1_UPRIM_U3_U6_U1_UM17_N561822
+  U1_UPRIM_U3_U6_U1_UM17_N561645  $G_DPWR $G_DGND AND2
X_U1_UPRIM_U3_U6_U1_UM17_U316         U1_UPRIM_U3_U6_U1_UM17_N561305
+  U1_UPRIM_U3_U6_U1_UM17_N561361 U1_UPRIM_U3_U6_U1_N538770 $G_DPWR $G_DGND OR2
X_U1_UPRIM_U3_U6_U1_UM17_U320         TIE_HIGH
+  U1_UPRIM_U3_U6_U1_TON_COMPLETE_2_TON_COMPLETE U1_UPRIM_U3_U6_U1_UM17_N561701 
+  $G_DPWR $G_DGND AND2
X_U1_UPRIM_U3_U6_U1_U332         U1_UPRIM_U3_U6_U1_N316911
+  U1_UPRIM_U3_U6_U1_N210659 U1_UPRIM_U3_U6_U1_N316905  $G_DPWR $G_DGND AND2
X_U1_UPRIM_U3_U6_U1_UM14_U319         U1_UPRIM_U3_U6_U1_UM14_N561645
+  U1_UPRIM_U3_U6_U1_UM14_N561701 U1_UPRIM_U3_U6_U1_N213065 $G_DPWR $G_DGND OR2
X_U1_UPRIM_U3_U6_U1_UM14_U313         U1_UPRIM_U3_U6_U1_UM14_N560952
+  U1_UPRIM_U3_U6_U1_UM14_N560959 U1_UPRIM_U3_U6_U1_N212833 $G_DPWR $G_DGND OR2
X_U1_UPRIM_U3_U6_U1_UM14_U315         0 U1_UPRIM_U3_U6_U1_UM14_N561822
+  U1_UPRIM_U3_U6_U1_UM14_N561305  $G_DPWR $G_DGND AND2
X_U1_UPRIM_U3_U6_U1_UM14_U317         0 U1_UPRIM_U3_U6_U1_TON_START_2_TON_START
+  U1_UPRIM_U3_U6_U1_UM14_N561361  $G_DPWR $G_DGND AND2
X_U1_UPRIM_U3_U6_U1_UM14_U311         U1_UPRIM_U3_U6_U1_TON_START_2_TON_START
+  U1_UPRIM_U3_U6_U1_UM14_N561822  $G_DPWR $G_DGND INV
X_U1_UPRIM_U3_U6_U1_UM14_U314         0 U1_UPRIM_U3_U6_U1_TON_START_2_TON_START
+  U1_UPRIM_U3_U6_U1_UM14_N560959  $G_DPWR $G_DGND AND2
X_U1_UPRIM_U3_U6_U1_UM14_U312         0 U1_UPRIM_U3_U6_U1_UM14_N561822
+  U1_UPRIM_U3_U6_U1_UM14_N560952  $G_DPWR $G_DGND AND2
X_U1_UPRIM_U3_U6_U1_UM14_U318         0 U1_UPRIM_U3_U6_U1_UM14_N561822
+  U1_UPRIM_U3_U6_U1_UM14_N561645  $G_DPWR $G_DGND AND2
X_U1_UPRIM_U3_U6_U1_UM14_U316         U1_UPRIM_U3_U6_U1_UM14_N561305
+  U1_UPRIM_U3_U6_U1_UM14_N561361 U1_UPRIM_U3_U6_U1_N212937 $G_DPWR $G_DGND OR2
X_U1_UPRIM_U3_U6_U1_UM14_U320         TIE_HIGH
+  U1_UPRIM_U3_U6_U1_TON_START_2_TON_START U1_UPRIM_U3_U6_U1_UM14_N561701 
+  $G_DPWR $G_DGND AND2
X_U1_UPRIM_U3_U6_U1_U338         U1_UPRIM_U3_U6_U1_N211685
+  U1_UPRIM_U3_U6_U1_N211811 U1_UPRIM_U3_U6_U1_N211995  $G_DPWR $G_DGND AND2
X_U1_UPRIM_U3_U6_U1_U377         U1_UPRIM_U3_U6_U1_N352886
+  U1_UPRIM_U3_U6_U1_N212705 U1_UPRIM_U3_U6_U1_N209355 $G_DPWR $G_DGND OR2
X_U1_UPRIM_U3_U6_U1_UM2_U319         U1_UPRIM_U3_U6_U1_UM2_N561645
+  U1_UPRIM_U3_U6_U1_UM2_N561701 U1_UPRIM_U3_U6_U1_N210619 $G_DPWR $G_DGND OR2
X_U1_UPRIM_U3_U6_U1_UM2_U313         U1_UPRIM_U3_U6_U1_UM2_N560952
+  U1_UPRIM_U3_U6_U1_UM2_N560959 U1_UPRIM_U3_U6_U1_N210161 $G_DPWR $G_DGND OR2
X_U1_UPRIM_U3_U6_U1_UM2_U315         0 U1_UPRIM_U3_U6_U1_UM2_N561822
+  U1_UPRIM_U3_U6_U1_UM2_N561305  $G_DPWR $G_DGND AND2
X_U1_UPRIM_U3_U6_U1_UM2_U317         0
+  U1_UPRIM_U3_U6_U1_CONFIG_STOP_2_TON_START U1_UPRIM_U3_U6_U1_UM2_N561361 
+  $G_DPWR $G_DGND AND2
X_U1_UPRIM_U3_U6_U1_UM2_U311         U1_UPRIM_U3_U6_U1_CONFIG_STOP_2_TON_START
+  U1_UPRIM_U3_U6_U1_UM2_N561822  $G_DPWR $G_DGND INV
X_U1_UPRIM_U3_U6_U1_UM2_U314         0
+  U1_UPRIM_U3_U6_U1_CONFIG_STOP_2_TON_START U1_UPRIM_U3_U6_U1_UM2_N560959 
+  $G_DPWR $G_DGND AND2
X_U1_UPRIM_U3_U6_U1_UM2_U312         0 U1_UPRIM_U3_U6_U1_UM2_N561822
+  U1_UPRIM_U3_U6_U1_UM2_N560952  $G_DPWR $G_DGND AND2
X_U1_UPRIM_U3_U6_U1_UM2_U318         0 U1_UPRIM_U3_U6_U1_UM2_N561822
+  U1_UPRIM_U3_U6_U1_UM2_N561645  $G_DPWR $G_DGND AND2
X_U1_UPRIM_U3_U6_U1_UM2_U316         U1_UPRIM_U3_U6_U1_UM2_N561305
+  U1_UPRIM_U3_U6_U1_UM2_N561361 U1_UPRIM_U3_U6_U1_N210527 $G_DPWR $G_DGND OR2
X_U1_UPRIM_U3_U6_U1_UM2_U320         TIE_HIGH
+  U1_UPRIM_U3_U6_U1_CONFIG_STOP_2_TON_START U1_UPRIM_U3_U6_U1_UM2_N561701 
+  $G_DPWR $G_DGND AND2
X_U1_UPRIM_U3_U6_U1_U316         U1_UPRIM_U3_U6_U1_RESETZ_B
+  U1_UPRIM_U3_U6_U1_N213257  $G_DPWR $G_DGND INV
X_U1_UPRIM_U3_U6_U1_U361         U1_UPRIM_U3_U6_U1_N209969
+  U1_UPRIM_U3_U6_U1_N210527 U1_UPRIM_U3_U6_U1_N210567 U1_UPRIM_U3_U6_U1_N209347
+  $G_DPWR $G_DGND OR3
X_U1_UPRIM_U3_U6_U1_U321         U1_UPRIM_U3_U6_U1_RESETZ_B
+  U1_UPRIM_U3_U6_U1_CONFIG_STOP_2_RESET  $G_DPWR $G_DGND INV
X_U1_UPRIM_U3_U6_U1_U323         U1_UPRIM_BURST_TON_SYNC
+  U1_UPRIM_U3_EN_DETECT_SYNC U1_UPRIM_U3_U6_U1_N210011 $G_DPWR $G_DGND OR2
X_U1_UPRIM_U3_U6_U1_U326         U1_UPRIM_U3_U6_U1_N210551
+  U1_UPRIM_U3_U6_U1_N316905 U1_UPRIM_U3_U6_U1_CONFIG_STOP_2_CONFIG_STOP $G_DPWR
+  $G_DGND OR2
X_U1_UPRIM_U3_U6_U1_U1D_U309         U1_UPRIM_U3_U6_STATE0
+  U1_UPRIM_U3_U6_U1_U1D_SEL0Z  $G_DPWR $G_DGND INV
X_U1_UPRIM_U3_U6_U1_U1D_U310         U1_UPRIM_U3_U6_STATE1
+  U1_UPRIM_U3_U6_U1_U1D_SEL1Z  $G_DPWR $G_DGND INV
X_U1_UPRIM_U3_U6_U1_U1D_U353         U1_UPRIM_U3_U6_U1_N209291
+  U1_UPRIM_U3_U6_U1_U1D_SEL0Z U1_UPRIM_U3_U6_U1_U1D_SEL1Z
+  U1_UPRIM_U3_U6_U1_U1D_SEL2Z U1_UPRIM_U3_U6_U1_U1D_N561298 $G_DPWR $G_DGND AND4
X_U1_UPRIM_U3_U6_U1_U1D_U358         U1_UPRIM_U3_U6_U1_N209311
+  U1_UPRIM_U3_U6_STATE0 U1_UPRIM_U3_U6_U1_U1D_SEL1Z U1_UPRIM_U3_U6_STATE2
+  U1_UPRIM_U3_U6_U1_U1D_N561324 $G_DPWR $G_DGND AND4
X_U1_UPRIM_U3_U6_U1_U1D_U359         0 U1_UPRIM_U3_U6_U1_U1D_SEL0Z
+  U1_UPRIM_U3_U6_STATE1 U1_UPRIM_U3_U6_STATE2 U1_UPRIM_U3_U6_U1_U1D_N561312
+  $G_DPWR $G_DGND AND4
X_U1_UPRIM_U3_U6_U1_U1D_U311         U1_UPRIM_U3_U6_STATE2
+  U1_UPRIM_U3_U6_U1_U1D_SEL2Z  $G_DPWR $G_DGND INV
X_U1_UPRIM_U3_U6_U1_U1D_U357         U1_UPRIM_U3_U6_U1_N209307
+  U1_UPRIM_U3_U6_U1_U1D_SEL0Z U1_UPRIM_U3_U6_U1_U1D_SEL1Z U1_UPRIM_U3_U6_STATE2
+  U1_UPRIM_U3_U6_U1_U1D_N561336 $G_DPWR $G_DGND AND4
X_U1_UPRIM_U3_U6_U1_U1D_U361         U1_UPRIM_U3_U6_U1_U1D_N561298
+  U1_UPRIM_U3_U6_U1_U1D_N561372 U1_UPRIM_U3_U6_U1_U1D_N561360
+  U1_UPRIM_U3_U6_U1_U1D_N561348 U1_UPRIM_U3_U6_U1_U1D_N561336
+  U1_UPRIM_U3_U6_U1_U1D_N561324 U1_UPRIM_U3_U6_U1_U1D_N561312
+  U1_UPRIM_U3_U6_U1_U1D_N561305 U1_UPRIM_U3_U6_NEXTSTATE0 $G_DPWR $G_DGND OR8
X_U1_UPRIM_U3_U6_U1_U1D_U356         0 U1_UPRIM_U3_U6_STATE0
+  U1_UPRIM_U3_U6_STATE1 U1_UPRIM_U3_U6_U1_U1D_SEL2Z
+  U1_UPRIM_U3_U6_U1_U1D_N561348 $G_DPWR $G_DGND AND4
X_U1_UPRIM_U3_U6_U1_U1D_U355         U1_UPRIM_U3_U6_U1_N209299
+  U1_UPRIM_U3_U6_U1_U1D_SEL0Z U1_UPRIM_U3_U6_STATE1 U1_UPRIM_U3_U6_U1_U1D_SEL2Z
+  U1_UPRIM_U3_U6_U1_U1D_N561360 $G_DPWR $G_DGND AND4
X_U1_UPRIM_U3_U6_U1_U1D_U354         U1_UPRIM_U3_U6_U1_N209295
+  U1_UPRIM_U3_U6_STATE0 U1_UPRIM_U3_U6_U1_U1D_SEL1Z U1_UPRIM_U3_U6_U1_U1D_SEL2Z
+  U1_UPRIM_U3_U6_U1_U1D_N561372 $G_DPWR $G_DGND AND4
X_U1_UPRIM_U3_U6_U1_U1D_U360         0 U1_UPRIM_U3_U6_STATE0
+  U1_UPRIM_U3_U6_STATE1 U1_UPRIM_U3_U6_STATE2 U1_UPRIM_U3_U6_U1_U1D_N561305
+  $G_DPWR $G_DGND AND4
X_U1_UPRIM_U3_U6_U1_U391         U1_UPRIM_U3_U6_U1_N909187
+  U1_UPRIM_U3_U6_U1_N910084  $G_DPWR $G_DGND INV
X_U1_UPRIM_U3_U6_U1_U306         U1_UPRIM_U3_EN_DETECT_SYNC
+  U1_UPRIM_U3_U6_U1_EN_DETECT_SYNC_B  $G_DPWR $G_DGND INV
X_U1_UPRIM_U3_U6_U1_U357         U1_UPRIM_U3_U6_U1_N213257
+  U1_UPRIM_U3_U6_U1_N213411 U1_UPRIM_U3_U6_U1_N213507 U1_UPRIM_U3_U6_U1_N213785
+  $G_DPWR $G_DGND AND3
X_U1_UPRIM_U3_U6_U1_U352         U1_UPRIM_U3_U6_U1_N209949
+  U1_UPRIM_U3_U6_U1_N210115 U1_UPRIM_U3_U6_U1_N210259 U1_UPRIM_U3_U6_U1_N210551
+  $G_DPWR $G_DGND AND3
X_U1_UPRIM_U3_U6_U1_UM12_U319         U1_UPRIM_U3_U6_U1_UM12_N561645
+  U1_UPRIM_U3_U6_U1_UM12_N561701 U1_UPRIM_U3_U6_U1_N535815 $G_DPWR $G_DGND OR2
X_U1_UPRIM_U3_U6_U1_UM12_U313         U1_UPRIM_U3_U6_U1_UM12_N560952
+  U1_UPRIM_U3_U6_U1_UM12_N560959 U1_UPRIM_U3_U6_U1_N535691 $G_DPWR $G_DGND OR2
X_U1_UPRIM_U3_U6_U1_UM12_U315         0 U1_UPRIM_U3_U6_U1_UM12_N561822
+  U1_UPRIM_U3_U6_U1_UM12_N561305  $G_DPWR $G_DGND AND2
X_U1_UPRIM_U3_U6_U1_UM12_U317         TIE_HIGH 0 U1_UPRIM_U3_U6_U1_UM12_N561361
+   $G_DPWR $G_DGND AND2
X_U1_UPRIM_U3_U6_U1_UM12_U311         0 U1_UPRIM_U3_U6_U1_UM12_N561822  $G_DPWR
+  $G_DGND INV
X_U1_UPRIM_U3_U6_U1_UM12_U314         TIE_HIGH 0 U1_UPRIM_U3_U6_U1_UM12_N560959
+   $G_DPWR $G_DGND AND2
X_U1_UPRIM_U3_U6_U1_UM12_U312         0 U1_UPRIM_U3_U6_U1_UM12_N561822
+  U1_UPRIM_U3_U6_U1_UM12_N560952  $G_DPWR $G_DGND AND2
X_U1_UPRIM_U3_U6_U1_UM12_U318         0 U1_UPRIM_U3_U6_U1_UM12_N561822
+  U1_UPRIM_U3_U6_U1_UM12_N561645  $G_DPWR $G_DGND AND2
X_U1_UPRIM_U3_U6_U1_UM12_U316         U1_UPRIM_U3_U6_U1_UM12_N561305
+  U1_UPRIM_U3_U6_U1_UM12_N561361 U1_UPRIM_U3_U6_U1_N535751 $G_DPWR $G_DGND OR2
X_U1_UPRIM_U3_U6_U1_UM12_U320         0 0 U1_UPRIM_U3_U6_U1_UM12_N561701 
+  $G_DPWR $G_DGND AND2
X_U1_UPRIM_U3_U6_U1_U351         U1_UPRIM_U3_U6_U1_VDDP_H_SYNC_B
+  U1_UPRIM_U3_EN_DETECT_SYNC U1_UPRIM_EN_2PIN_SYNC U1_UPRIM_U3_U6_U1_N210259
+  $G_DPWR $G_DGND AND3
X_U1_UPRIM_U3_U6_U1_U313         U1_UPRIM_U3_U6_U1_N211811
+  U1_UPRIM_U3_U6_U1_N211927  $G_DPWR $G_DGND INV
X_U1_UPRIM_U3_U6_U1_U329         U1_UPRIM_U3_U6_U1_N210011
+  U1_UPRIM_U3_U6_U1_EN_2PIN_SYNC_B U1_UPRIM_U3_U6_U1_N210043  $G_DPWR $G_DGND
+  AND2
X_U1_UPRIM_U3_U6_U1_U343         U1_UPRIM_BURST_TON_SYNC
+  U1_UPRIM_U3_U6_U1_EN_2PIN_SYNC_B U1_UPRIM_U3_U6_U1_N213761  $G_DPWR $G_DGND
+  AND2
X_U1_UPRIM_U3_U6_U1_UM4_U319         U1_UPRIM_U3_U6_U1_UM4_N561645
+  U1_UPRIM_U3_U6_U1_UM4_N561701 U1_UPRIM_U3_U6_U1_N209391 $G_DPWR $G_DGND OR2
X_U1_UPRIM_U3_U6_U1_UM4_U313         U1_UPRIM_U3_U6_U1_UM4_N560952
+  U1_UPRIM_U3_U6_U1_UM4_N560959 U1_UPRIM_U3_U6_U1_N209295 $G_DPWR $G_DGND OR2
X_U1_UPRIM_U3_U6_U1_UM4_U315         0 U1_UPRIM_U3_U6_U1_UM4_N561822
+  U1_UPRIM_U3_U6_U1_UM4_N561305  $G_DPWR $G_DGND AND2
X_U1_UPRIM_U3_U6_U1_UM4_U317         TIE_HIGH U1_UPRIM_RESETZ_SYNC
+  U1_UPRIM_U3_U6_U1_UM4_N561361  $G_DPWR $G_DGND AND2
X_U1_UPRIM_U3_U6_U1_UM4_U311         U1_UPRIM_RESETZ_SYNC
+  U1_UPRIM_U3_U6_U1_UM4_N561822  $G_DPWR $G_DGND INV
X_U1_UPRIM_U3_U6_U1_UM4_U314         0 U1_UPRIM_RESETZ_SYNC
+  U1_UPRIM_U3_U6_U1_UM4_N560959  $G_DPWR $G_DGND AND2
X_U1_UPRIM_U3_U6_U1_UM4_U312         0 U1_UPRIM_U3_U6_U1_UM4_N561822
+  U1_UPRIM_U3_U6_U1_UM4_N560952  $G_DPWR $G_DGND AND2
X_U1_UPRIM_U3_U6_U1_UM4_U318         0 U1_UPRIM_U3_U6_U1_UM4_N561822
+  U1_UPRIM_U3_U6_U1_UM4_N561645  $G_DPWR $G_DGND AND2
X_U1_UPRIM_U3_U6_U1_UM4_U316         U1_UPRIM_U3_U6_U1_UM4_N561305
+  U1_UPRIM_U3_U6_U1_UM4_N561361 U1_UPRIM_U3_U6_U1_N209343 $G_DPWR $G_DGND OR2
X_U1_UPRIM_U3_U6_U1_UM4_U320         0 U1_UPRIM_RESETZ_SYNC
+  U1_UPRIM_U3_U6_U1_UM4_N561701  $G_DPWR $G_DGND AND2
X_U1_UPRIM_U3_U6_U1_U367         U1_UPRIM_U3_U6_U1_N535631
+  U1_UPRIM_U3_U6_U1_N535747 U1_UPRIM_U3_U6_U1_N535751 U1_UPRIM_U3_U6_U1_N352886
+  $G_DPWR $G_DGND OR3
X_U1_UPRIM_U3_U6_U1_U311         U1_UPRIM_U3_U6_U1_N210259
+  U1_UPRIM_U3_U6_U1_N210379  $G_DPWR $G_DGND INV
X_U1_UPRIM_U3_U6_U1_U315         U1_UPRIM_U3_U6_U1_N212285
+  U1_UPRIM_U3_U6_U1_N212353  $G_DPWR $G_DGND INV
X_U1_UPRIM_U3_U6_U1_U379         U1_UPRIM_U3_VDDP_H_SYNC
+  U1_UPRIM_U3_EN_DETECT_SYNC U1_UPRIM_U3_U6_U1_N210539 $G_DPWR $G_DGND OR2
X_U1_UPRIM_U3_U6_U1_U1D1_U309         U1_UPRIM_U3_U6_STATE0
+  U1_UPRIM_U3_U6_U1_U1D1_SEL0Z  $G_DPWR $G_DGND INV
X_U1_UPRIM_U3_U6_U1_U1D1_U310         U1_UPRIM_U3_U6_STATE1
+  U1_UPRIM_U3_U6_U1_U1D1_SEL1Z  $G_DPWR $G_DGND INV
X_U1_UPRIM_U3_U6_U1_U1D1_U353         U1_UPRIM_U3_U6_U1_N209339
+  U1_UPRIM_U3_U6_U1_U1D1_SEL0Z U1_UPRIM_U3_U6_U1_U1D1_SEL1Z
+  U1_UPRIM_U3_U6_U1_U1D1_SEL2Z U1_UPRIM_U3_U6_U1_U1D1_N561298 $G_DPWR $G_DGND
+  AND4
X_U1_UPRIM_U3_U6_U1_U1D1_U358         U1_UPRIM_U3_U6_U1_N209359
+  U1_UPRIM_U3_U6_STATE0 U1_UPRIM_U3_U6_U1_U1D1_SEL1Z U1_UPRIM_U3_U6_STATE2
+  U1_UPRIM_U3_U6_U1_U1D1_N561324 $G_DPWR $G_DGND AND4
X_U1_UPRIM_U3_U6_U1_U1D1_U359         0 U1_UPRIM_U3_U6_U1_U1D1_SEL0Z
+  U1_UPRIM_U3_U6_STATE1 U1_UPRIM_U3_U6_STATE2 U1_UPRIM_U3_U6_U1_U1D1_N561312
+  $G_DPWR $G_DGND AND4
X_U1_UPRIM_U3_U6_U1_U1D1_U311         U1_UPRIM_U3_U6_STATE2
+  U1_UPRIM_U3_U6_U1_U1D1_SEL2Z  $G_DPWR $G_DGND INV
X_U1_UPRIM_U3_U6_U1_U1D1_U357         U1_UPRIM_U3_U6_U1_N209355
+  U1_UPRIM_U3_U6_U1_U1D1_SEL0Z U1_UPRIM_U3_U6_U1_U1D1_SEL1Z
+  U1_UPRIM_U3_U6_STATE2 U1_UPRIM_U3_U6_U1_U1D1_N561336 $G_DPWR $G_DGND AND4
X_U1_UPRIM_U3_U6_U1_U1D1_U361         U1_UPRIM_U3_U6_U1_U1D1_N561298
+  U1_UPRIM_U3_U6_U1_U1D1_N561372 U1_UPRIM_U3_U6_U1_U1D1_N561360
+  U1_UPRIM_U3_U6_U1_U1D1_N561348 U1_UPRIM_U3_U6_U1_U1D1_N561336
+  U1_UPRIM_U3_U6_U1_U1D1_N561324 U1_UPRIM_U3_U6_U1_U1D1_N561312
+  U1_UPRIM_U3_U6_U1_U1D1_N561305 U1_UPRIM_U3_U6_NEXTSTATE1 $G_DPWR $G_DGND OR8
X_U1_UPRIM_U3_U6_U1_U1D1_U356         0 U1_UPRIM_U3_U6_STATE0
+  U1_UPRIM_U3_U6_STATE1 U1_UPRIM_U3_U6_U1_U1D1_SEL2Z
+  U1_UPRIM_U3_U6_U1_U1D1_N561348 $G_DPWR $G_DGND AND4
X_U1_UPRIM_U3_U6_U1_U1D1_U355         U1_UPRIM_U3_U6_U1_N209347
+  U1_UPRIM_U3_U6_U1_U1D1_SEL0Z U1_UPRIM_U3_U6_STATE1
+  U1_UPRIM_U3_U6_U1_U1D1_SEL2Z U1_UPRIM_U3_U6_U1_U1D1_N561360 $G_DPWR $G_DGND
+  AND4
X_U1_UPRIM_U3_U6_U1_U1D1_U354         U1_UPRIM_U3_U6_U1_N209343
+  U1_UPRIM_U3_U6_STATE0 U1_UPRIM_U3_U6_U1_U1D1_SEL1Z
+  U1_UPRIM_U3_U6_U1_U1D1_SEL2Z U1_UPRIM_U3_U6_U1_U1D1_N561372 $G_DPWR $G_DGND
+  AND4
X_U1_UPRIM_U3_U6_U1_U1D1_U360         0 U1_UPRIM_U3_U6_STATE0
+  U1_UPRIM_U3_U6_STATE1 U1_UPRIM_U3_U6_STATE2 U1_UPRIM_U3_U6_U1_U1D1_N561305
+  $G_DPWR $G_DGND AND4
X_U1_UPRIM_U3_U6_U1_U360         U1_UPRIM_U3_U6_U1_N209915
+  U1_UPRIM_U3_U6_U1_N210161 U1_UPRIM_U3_U6_U1_N210231 U1_UPRIM_U3_U6_U1_N209299
+  $G_DPWR $G_DGND OR3
X_U1_UPRIM_U3_U6_U1_UM9_U319         U1_UPRIM_U3_U6_U1_UM9_N561645
+  U1_UPRIM_U3_U6_U1_UM9_N561701 U1_UPRIM_U3_U6_U1_N616230 $G_DPWR $G_DGND OR2
X_U1_UPRIM_U3_U6_U1_UM9_U313         U1_UPRIM_U3_U6_U1_UM9_N560952
+  U1_UPRIM_U3_U6_U1_UM9_N560959 U1_UPRIM_U3_U6_U1_N620199 $G_DPWR $G_DGND OR2
X_U1_UPRIM_U3_U6_U1_UM9_U315         0 U1_UPRIM_U3_U6_U1_UM9_N561822
+  U1_UPRIM_U3_U6_U1_UM9_N561305  $G_DPWR $G_DGND AND2
X_U1_UPRIM_U3_U6_U1_UM9_U317         TIE_HIGH
+  U1_UPRIM_U3_U6_U1_TON_COMPLETE_2_CONFIG_STOP U1_UPRIM_U3_U6_U1_UM9_N561361 
+  $G_DPWR $G_DGND AND2
X_U1_UPRIM_U3_U6_U1_UM9_U311        
+  U1_UPRIM_U3_U6_U1_TON_COMPLETE_2_CONFIG_STOP U1_UPRIM_U3_U6_U1_UM9_N561822 
+  $G_DPWR $G_DGND INV
X_U1_UPRIM_U3_U6_U1_UM9_U314         0
+  U1_UPRIM_U3_U6_U1_TON_COMPLETE_2_CONFIG_STOP U1_UPRIM_U3_U6_U1_UM9_N560959 
+  $G_DPWR $G_DGND AND2
X_U1_UPRIM_U3_U6_U1_UM9_U312         0 U1_UPRIM_U3_U6_U1_UM9_N561822
+  U1_UPRIM_U3_U6_U1_UM9_N560952  $G_DPWR $G_DGND AND2
X_U1_UPRIM_U3_U6_U1_UM9_U318         0 U1_UPRIM_U3_U6_U1_UM9_N561822
+  U1_UPRIM_U3_U6_U1_UM9_N561645  $G_DPWR $G_DGND AND2
X_U1_UPRIM_U3_U6_U1_UM9_U316         U1_UPRIM_U3_U6_U1_UM9_N561305
+  U1_UPRIM_U3_U6_U1_UM9_N561361 U1_UPRIM_U3_U6_U1_N617906 $G_DPWR $G_DGND OR2
X_U1_UPRIM_U3_U6_U1_UM9_U320         0
+  U1_UPRIM_U3_U6_U1_TON_COMPLETE_2_CONFIG_STOP U1_UPRIM_U3_U6_U1_UM9_N561701 
+  $G_DPWR $G_DGND AND2
X_U1_UPRIM_U3_U6_U1_U347         U1_UPRIM_U3_U6_U1_N386131
+  U1_UPRIM_U3_U6_U1_N213877 U1_UPRIM_U3_U6_U1_TON_COMPLETE_2_TON_COMPLETE 
+  $G_DPWR $G_DGND AND2
X_U1_UPRIM_U3_U6_U1_U362         U1_UPRIM_U3_U6_U1_N210027
+  U1_UPRIM_U3_U6_U1_N210619 U1_UPRIM_U3_U6_U1_N210765 U1_UPRIM_U3_U6_U1_N209395
+  $G_DPWR $G_DGND OR3
X_U1_UPRIM_U3_U6_U1_U304         U1_UPRIM_RESETZ_SYNC
+  U1_UPRIM_U3_U6_U1_RESETZ_B  $G_DPWR $G_DGND INV
X_U1_UPRIM_U3_U6_U1_U318         U1_UPRIM_U3_U6_U1_N213507
+  U1_UPRIM_U3_U6_U1_N213603  $G_DPWR $G_DGND INV
X_U1_UPRIM_U3_U6_U1_U384         U1_UPRIM_U3_U6_U1_N213785
+  U1_UPRIM_U3_U6_U1_N393518 U1_UPRIM_U3_U6_U1_TON_COMPLETE_2_TON_START $G_DPWR
+  $G_DGND OR2
X_U1_UPRIM_U3_U6_U1_U392         U1_UPRIM_U3_U6_U1_N911920
+  U1_UPRIM_U3_U6_U1_N911920 U1_UPRIM_U3_U6_U1_TON_START_2_TON_COMPLETE $G_DPWR
+  $G_DGND OR2
X_U1_UPRIM_U3_U6_U1_U345         U1_UPRIM_U3_U6_U1_N213257
+  U1_UPRIM_U3_U6_U1_N213327 U1_UPRIM_U3_U6_U1_TON_COMPLETE_2_CONFIG_STOP 
+  $G_DPWR $G_DGND AND2
X_U1_UPRIM_U3_U6_U1_U389         U1_UPRIM_U3_U6_U1_N898321
+  U1_UPRIM_EN_2PIN_SYNC U1_UPRIM_U3_U6_U1_N213507  $G_DPWR $G_DGND AND2
X_U1_UPRIM_U3_U6_U1_UM1_U319         U1_UPRIM_U3_U6_U1_UM1_N561645
+  U1_UPRIM_U3_U6_U1_UM1_N561701 U1_UPRIM_U3_U6_U1_N210765 $G_DPWR $G_DGND OR2
X_U1_UPRIM_U3_U6_U1_UM1_U313         U1_UPRIM_U3_U6_U1_UM1_N560952
+  U1_UPRIM_U3_U6_U1_UM1_N560959 U1_UPRIM_U3_U6_U1_N210231 $G_DPWR $G_DGND OR2
X_U1_UPRIM_U3_U6_U1_UM1_U315         0 U1_UPRIM_U3_U6_U1_UM1_N561822
+  U1_UPRIM_U3_U6_U1_UM1_N561305  $G_DPWR $G_DGND AND2
X_U1_UPRIM_U3_U6_U1_UM1_U317         TIE_HIGH
+  U1_UPRIM_U3_U6_U1_CONFIG_STOP_2_CONFIG_STOP U1_UPRIM_U3_U6_U1_UM1_N561361 
+  $G_DPWR $G_DGND AND2
X_U1_UPRIM_U3_U6_U1_UM1_U311        
+  U1_UPRIM_U3_U6_U1_CONFIG_STOP_2_CONFIG_STOP U1_UPRIM_U3_U6_U1_UM1_N561822 
+  $G_DPWR $G_DGND INV
X_U1_UPRIM_U3_U6_U1_UM1_U314         0
+  U1_UPRIM_U3_U6_U1_CONFIG_STOP_2_CONFIG_STOP U1_UPRIM_U3_U6_U1_UM1_N560959 
+  $G_DPWR $G_DGND AND2
X_U1_UPRIM_U3_U6_U1_UM1_U312         0 U1_UPRIM_U3_U6_U1_UM1_N561822
+  U1_UPRIM_U3_U6_U1_UM1_N560952  $G_DPWR $G_DGND AND2
X_U1_UPRIM_U3_U6_U1_UM1_U318         0 U1_UPRIM_U3_U6_U1_UM1_N561822
+  U1_UPRIM_U3_U6_U1_UM1_N561645  $G_DPWR $G_DGND AND2
X_U1_UPRIM_U3_U6_U1_UM1_U316         U1_UPRIM_U3_U6_U1_UM1_N561305
+  U1_UPRIM_U3_U6_U1_UM1_N561361 U1_UPRIM_U3_U6_U1_N210567 $G_DPWR $G_DGND OR2
X_U1_UPRIM_U3_U6_U1_UM1_U320         0
+  U1_UPRIM_U3_U6_U1_CONFIG_STOP_2_CONFIG_STOP U1_UPRIM_U3_U6_U1_UM1_N561701 
+  $G_DPWR $G_DGND AND2
X_U1_UPRIM_U3_U6_U1_U303         U1_UPRIM_EN_2PIN_SYNC
+  U1_UPRIM_U3_U6_U1_EN_2PIN_SYNC_B  $G_DPWR $G_DGND INV
X_U1_UPRIM_U3_U6_U1_UM11_U319         U1_UPRIM_U3_U6_U1_UM11_N561645
+  U1_UPRIM_U3_U6_U1_UM11_N561701 U1_UPRIM_U3_U6_U1_N535763 $G_DPWR $G_DGND OR2
X_U1_UPRIM_U3_U6_U1_UM11_U313         U1_UPRIM_U3_U6_U1_UM11_N560952
+  U1_UPRIM_U3_U6_U1_UM11_N560959 U1_UPRIM_U3_U6_U1_N535683 $G_DPWR $G_DGND OR2
X_U1_UPRIM_U3_U6_U1_UM11_U315         0 U1_UPRIM_U3_U6_U1_UM11_N561822
+  U1_UPRIM_U3_U6_U1_UM11_N561305  $G_DPWR $G_DGND AND2
X_U1_UPRIM_U3_U6_U1_UM11_U317         TIE_HIGH
+  U1_UPRIM_U3_U6_U1_TON_START_2_CONFIG_STOP U1_UPRIM_U3_U6_U1_UM11_N561361 
+  $G_DPWR $G_DGND AND2
X_U1_UPRIM_U3_U6_U1_UM11_U311         U1_UPRIM_U3_U6_U1_TON_START_2_CONFIG_STOP
+  U1_UPRIM_U3_U6_U1_UM11_N561822  $G_DPWR $G_DGND INV
X_U1_UPRIM_U3_U6_U1_UM11_U314         0
+  U1_UPRIM_U3_U6_U1_TON_START_2_CONFIG_STOP U1_UPRIM_U3_U6_U1_UM11_N560959 
+  $G_DPWR $G_DGND AND2
X_U1_UPRIM_U3_U6_U1_UM11_U312         0 U1_UPRIM_U3_U6_U1_UM11_N561822
+  U1_UPRIM_U3_U6_U1_UM11_N560952  $G_DPWR $G_DGND AND2
X_U1_UPRIM_U3_U6_U1_UM11_U318         0 U1_UPRIM_U3_U6_U1_UM11_N561822
+  U1_UPRIM_U3_U6_U1_UM11_N561645  $G_DPWR $G_DGND AND2
X_U1_UPRIM_U3_U6_U1_UM11_U316         U1_UPRIM_U3_U6_U1_UM11_N561305
+  U1_UPRIM_U3_U6_U1_UM11_N561361 U1_UPRIM_U3_U6_U1_N535747 $G_DPWR $G_DGND OR2
X_U1_UPRIM_U3_U6_U1_UM11_U320         0
+  U1_UPRIM_U3_U6_U1_TON_START_2_CONFIG_STOP U1_UPRIM_U3_U6_U1_UM11_N561701 
+  $G_DPWR $G_DGND AND2
X_U1_UPRIM_U3_U6_U1_U333         U1_UPRIM_U3_U6_U1_N209949
+  U1_UPRIM_U3_U6_U1_N210043 U1_UPRIM_U3_U6_U1_N210247  $G_DPWR $G_DGND AND2
X_U1_UPRIM_U3_U6_U1_U381         U1_UPRIM_U3_U6_U1_N538578
+  U1_UPRIM_U3_U6_U1_N538698 U1_UPRIM_U3_U6_U1_N616235 U1_UPRIM_U3_U6_U1_N616230
+  U1_UPRIM_U3_U6_U1_N209407 $G_DPWR $G_DGND OR4
X_U1_UPRIM_U3_U6_U1_U383         U1_UPRIM_U3_U6_U1_N538558
+  U1_UPRIM_U3_U6_U1_N755743 U1_UPRIM_U3_U6_U1_N538758 U1_UPRIM_U3_U6_U1_N620199
+  U1_UPRIM_U3_U6_U1_N209311 $G_DPWR $G_DGND OR4
X_U1_UPRIM_U3_U6_U1_U341         U1_UPRIM_U3_EN_DETECT_SYNC
+  U1_UPRIM_U3_U6_U1_EN_2PIN_SYNC_B U1_UPRIM_U3_U6_U1_N213327  $G_DPWR $G_DGND
+  AND2