*$
* TPSM82480
*****************************************************************************
* (C) Copyright 2017 Texas Instruments Incorporated. All rights reserved.                                            
*****************************************************************************
** This model is designed as an aid for customers of Texas Instruments.
** TI and its licensors and suppliers make no warranties, either expressed
** or implied, with respect to this model, including the warranties of 
** merchantability or fitness for a particular purpose.  The model is
** provided solely on an "as is" basis.  The entire risk as to its quality
** and performance is with the customer
*****************************************************************************
*
* This model is subject to change without notice. Texas Instruments
* Incorporated is not responsible for updating this model.
*
*****************************************************************************
*
** Released by: WEBENCH Design Center, Texas Instruments Inc.
* Part: TPSM82480
* Date: 27JUL2017
* Model Type: TRANSIENT 
* Simulator: PSPICE
* Simulator Version: 16.2.0.p001
* EVM Order Number: TPSM82480EVM-002
* EVM Users Guide: SLVUB57-JUNE 2017
* Datasheet: SLVSDT1-JUNE 2017
* Topologies Supported: Buck
*
* Model Version: Final 1.00
*
*****************************************************************************
*
* Updates:
*
* Final 1.00
* Release to Web.
*
*****************************************************************************
*
* Model Usage Notes:
*
* 1. The following features have been modeled
*      a. Forced PWM mode 
*      b. Output voltage select
*      c. Power Good
*      d. Ground pins are connected to 0V internally.
* 2. Temperature effects are not modeled. 
* 3. Ground pins have been tied to 0V internally.  
*	 Therefore, this model cannot be used for inverting topologies.
*
*****************************************************************************
.SUBCKT TPSM82480_TRANS AGND EN FB MODE PG PGND1_0 PGND1_1 PGND1_2 PGND1_3
+  PGND2_0 PGND2_1 PGND2_2 PGND2_3 RS SS_TR TG VIN1_0 VIN1_1 VIN2_0 VIN2_1 VO
+  VOUT1 VOUT2 VSEL PARAMS: SS=0  
X_U5_U11         ISENSE_HS2 U5_COMP_FCCM U5_N16859755 COMP_BASIC_GEN PARAMS:
+  VDD=1 VSS=0 VTHRESH=0.5
X_U5_U630         PSM_TOFF2 TOFF2 U5_N16826970 OR2_BASIC_GEN PARAMS: VDD=1
+  VSS=0 VTHRESH=500E-3
X_U5_U689         PSM_TOFF1 TOFF1 U5_N16827620 OR2_BASIC_GEN PARAMS: VDD=1
+  VSS=0 VTHRESH=500E-3
X_U5_U619         SDWN_N U5_N16896959 INV_DELAY_BASIC_GEN PARAMS: VDD=1 VSS=0
+  VTHRESH=0.5 DELAY=40n
C_U5_C4         AGND U5_N16785827  1n  TC=0,0 
X_U5_U10         ISENSE_HS1 U5_COMP_FCCM U5_N16858059 COMP_BASIC_GEN PARAMS:
+  VDD=1 VSS=0 VTHRESH=0.5
X_U5_U618         U5_N16896959 SDWN_N U5_SDWN_START AND2_BASIC_GEN PARAMS:
+  VDD=1 VSS=0 VTHRESH=500E-3
C_U5_C5         AGND U5_N16786629  1n  TC=0,0 
X_U5_U30         HS2_ON_PRE U5_SDWN_START U5_N16892474 OR2_BASIC_GEN PARAMS:
+  VDD=1 VSS=0 VTHRESH=500E-3
X_U5_U688         SDWN_N U5_N16892474 U5_N16813194 AND2_BASIC_GEN PARAMS: VDD=1
+  VSS=0 VTHRESH=500E-3
X_U5_U26         U5_N16786629 MIN_TON2 U5_N16805826 AND2_BASIC_GEN PARAMS:
+  VDD=1 VSS=0 VTHRESH=500E-3
X_U5_U32         U5_N16826970 LS1_ON HS2_ON_PRE AND2_BASIC_GEN PARAMS: VDD=1
+  VSS=0 VTHRESH=500E-3
E_U5_ABM8         U5_N16883164 0 VALUE { IF(V(FCCM_32CYCLES)>0.5 & V(PHASE2_NO)
+  < 0.5, 2.75,2.5)    }
X_U5_U12         ISENSE_HS1_PRE U5_CUR_THRESH CUR_LIM1 COMP_BASIC_GEN PARAMS:
+  VDD=1 VSS=0 VTHRESH=0.5
X_U5_U27         U5_N16785827 MIN_TON1 U5_N16804842 AND2_BASIC_GEN PARAMS:
+  VDD=1 VSS=0 VTHRESH=500E-3
X_U5_U686         U5_N16868230 PHASE2_NO LS2_ON AND2_BASIC_GEN PARAMS: VDD=1
+  VSS=0 VTHRESH=500E-3
E_U5_ABM7         U5_COMP_FCCM 0 VALUE { IF(V(FCCM_32CYCLES)>0.5 & V(PHASE2_NO)
+  < 0.5, V(COMP)-250m,V(COMP))    }
X_U5_U617         U5_N16813194 U5_HS2_RST U5_N16779741 U5_N16868230
+  srlatchrhp_basic_gen PARAMS: VDD=1 VSS=0 VTHRESH=0.5
X_U5_U616         U5_N16889940 U5_HS1_RST HS1_ON LS1_ON srlatchrhp_basic_gen
+  PARAMS: VDD=1 VSS=0 VTHRESH=0.5
R_U5_R9         U5_N16785827 U5_N16858059  1  
X_U5_U28         U5_N16804842 CUR_LIM1 U5_HS1_RST OR2_BASIC_GEN PARAMS: VDD=1
+  VSS=0 VTHRESH=500E-3
X_U5_U687         U5_N16805826 CUR_LIM2 U5_HS2_RST OR2_BASIC_GEN PARAMS: VDD=1
+  VSS=0 VTHRESH=500E-3
X_U5_U31         SDWN_N U5_N16889393 U5_N16889940 AND2_BASIC_GEN PARAMS: VDD=1
+  VSS=0 VTHRESH=500E-3
X_U5_U647         U5_N16779741 PHASE2_NO HS2_ON AND2_BASIC_GEN PARAMS: VDD=1
+  VSS=0 VTHRESH=500E-3
X_U5_U690         U5_N16827620 U5_SDWN_START U5_N16889393 OR2_BASIC_GEN PARAMS:
+  VDD=1 VSS=0 VTHRESH=500E-3
R_U5_R10         U5_N16786629 U5_N16859755  1  
X_U5_U13         ISENSE_HS2_PRE U5_CUR_THRESH CUR_LIM2 COMP_BASIC_GEN PARAMS:
+  VDD=1 VSS=0 VTHRESH=0.5
E_U5_ABM9         U5_CUR_THRESH 0 VALUE { IF(V(FAULT_1)>0.5 | V(FAULT_2) >0.5,
+  V(U5_N16883164)/3,V(U5_N16883164))    }
E_U1_E3         U1_POR AGND U1_N251385 AGND 1
R_U1_R3         U1_N2557321 U1_N60663  1  
X_U1_U28         U1_POR U1_UVLO_OUT U1_EN_OUT U1_EN_OUT U1_N2561041
+  AND4_BASIC_GEN PARAMS: VDD=1 VSS=0 VTHRESH=500E-3
E_U1_ABM2         U1_N2557321 0 VALUE { (V(U1_UVLO_OUT)*-200m +2.3)    }
R_U1_R9         U1_N2557561 U1_N251611  1  
X_U1_U6         EN U1_N61579 U1_N247321 COMP_BASIC_GEN PARAMS: VDD=1 VSS=0
+  VTHRESH=0.5
X_U1_U5         VIN1_0 U1_N60663 U1_N247628 COMP_BASIC_GEN PARAMS: VDD=1 VSS=0
+  VTHRESH=0.5
R_U1_R5         U1_N2558381 U1_N61579  1  
E_U1_E1         U1_EN_OUT AGND U1_N247321 AGND 1
E_U1_ABM6         U1_N2557561 0 VALUE { (V(U1_POR)*-50m +1.55)    }
C_U1_C11         SDWN_N AGND  1n IC={SS} 
E_U1_ABM4         U1_N2558381 0 VALUE { (V(U1_EN_OUT)* -800m +1.2)    }
E_U1_E2         U1_UVLO_OUT AGND U1_N247628 AGND 1
R_U1_R11         U1_N2561041 SDWN_N  1  
C_U1_C8         AGND U1_N251611  1n  
C_U1_C3         AGND U1_N60663  1n  
X_U1_U8         SDWN_N SDWN INV_BASIC_GEN PARAMS: VDD=1 VSS=0 VTHRESH=500E-3
C_U1_C4         AGND U1_N61579  1n  
X_U1_U7         VIN1_0 U1_N251611 U1_N251385 COMP_BASIC_GEN PARAMS: VDD=1 VSS=0
+  VTHRESH=0.5
X_U1_U29         TRACK_DOWN N277204 INV_BASIC_GEN PARAMS: VDD=1 VSS=0
+  VTHRESH=500E-3
R_R7         MODE AGND  1G TC=0,0 
X_U6_H6    U6_N16791192 SW2 ISENSE_LS2 AGND Driver_U6_H6 
X_U6_U641         U6_VOUT_LESS_350MV LS1_ON U6_N16824102 AND2_BASIC_GEN PARAMS:
+  VDD=1 VSS=0 VTHRESH=500E-3
X_U6_U642         U6_N16824102 SDWN_N U6_N16802470 U6_N16824138 AND3_BASIC_GEN
+  PARAMS: VDD=1 VSS=0 VTHRESH=500E-3
X_U6_U633         PSM2_ON U6_N16802529 INV_BASIC_GEN PARAMS: VDD=1 VSS=0
+  VTHRESH=500E-3
X_U6_U3         U6_N33832 U6_N33808 U6_DRVL1 AND2_BASIC_GEN PARAMS: VDD=1 VSS=0
+  VTHRESH=500E-3
X_U6_U14         HS2_ON U6_N16791198 BUF_DELAY_BASIC_GEN PARAMS: VDD=1 VSS=0
+  VTHRESH=0.5 DELAY=10n
V_U6_V3         U6_N16791192 U6_N167759751 0.2V
X_U6_U634         U6_N16802529 FCCM_32CYCLES U6_N16802562 OR2_BASIC_GEN PARAMS:
+  VDD=1 VSS=0 VTHRESH=500E-3
X_U6_U8         U6_N16791297 U6_N16791315 BUF_DELAY_BASIC_GEN PARAMS: VDD=1
+  VSS=0 VTHRESH=0.5 DELAY=5n
R_U6_R10         ISENSE_HS2 ISENSE_HS2_PRE  1k  
V_U6_V4         AGND U6_N16897235 0.2V
V_U6_V12         U6_N16870066 AGND 0.35
X_U6_U6         U6_N16791198 U6_N16791307 U6_DRVH2 AND2_BASIC_GEN PARAMS: VDD=1
+  VSS=0 VTHRESH=500E-3
X_U6_U640         VO U6_N16870066 U6_VOUT_LESS_350MV COMP_BASIC_GEN PARAMS:
+  VDD=1 VSS=0 VTHRESH=0.5
X_U6_U1         U6_N16928714 U6_N16928722 BUF_DELAY_BASIC_GEN PARAMS: VDD=1
+  VSS=0 VTHRESH=0.5 DELAY=5n
X_U6_U4         U6_N33832 U6_N33808 BUF_DELAY_BASIC_GEN PARAMS: VDD=1 VSS=0
+  VTHRESH=0.5 DELAY=5n
X_U6_D16         ISENSE_HS2 ISENSE_HS2_PRE d_d1 PARAMS:
X_U6_D11         U6_N16815761 U6_N16766543 d_d1 PARAMS:
X_U6_U13         U6_N16791363 U6_N16791297 BUF_DELAY_BASIC_GEN PARAMS: VDD=1
+  VSS=0 VTHRESH=0.5 DELAY=10n
X_U6_U11         HS1_ON U6_N16928714 BUF_DELAY_BASIC_GEN PARAMS: VDD=1 VSS=0
+  VTHRESH=0.5 DELAY=10n
X_U6_U643         U6_N16804926 SDWN_N U6_N16802562 U6_N16791363 AND3_BASIC_GEN
+  PARAMS: VDD=1 VSS=0 VTHRESH=500E-3
X_U6_D12         U6_N16897324 U6_N16766847 d_d1 PARAMS:
X_U6_U622         PSM1_ON U6_N16802402 INV_BASIC_GEN PARAMS: VDD=1 VSS=0
+  VTHRESH=500E-3
X_U6_S4    U6_DRVL1 AGND U6_N16766847 AGND Driver_U6_S4 
X_U6_D13         U6_N16897235 U6_N16791192 d_d1 PARAMS:
X_U6_S11    U6_DRVH2 AGND U6_N16791190 U6_N16791192 Driver_U6_S11 
X_U6_U5         U6_N16791297 U6_N16791315 U6_DRVL2 AND2_BASIC_GEN PARAMS: VDD=1
+  VSS=0 VTHRESH=500E-3
X_U6_U28         U6_N16802402 FCCM_32CYCLES U6_N16802470 OR2_BASIC_GEN PARAMS:
+  VDD=1 VSS=0 VTHRESH=500E-3
X_U6_U7         U6_N16791198 U6_N16791307 BUF_DELAY_BASIC_GEN PARAMS: VDD=1
+  VSS=0 VTHRESH=0.5 DELAY=5n
X_U6_H5    U6_N16766847 SW1 ISENSE_LS1 AGND Driver_U6_H5 
R_U6_R9         ISENSE_HS1 ISENSE_HS1_PRE  1k  
X_U6_H1    VIN1_0 U6_N16766543 ISENSE_HS1_PRE AGND Driver_U6_H1 
X_U6_S3    U6_DRVH1 AGND U6_N16766543 U6_N16766847 Driver_U6_S3 
X_U6_H3    VIN1_0 U6_N16791190 ISENSE_HS2_PRE AGND Driver_U6_H3 
V_U6_V13         AGND U6_N16897324 0.2V
X_U6_D14         U6_N167759751 U6_N16791190 d_d1 PARAMS:
C_U6_C5         AGND ISENSE_HS2  22p  TC=0,0 
X_U6_D15         ISENSE_HS1 ISENSE_HS1_PRE d_d1 PARAMS:
X_U6_U635         LS2_ON U6_VOUT_LESS_350MV U6_N16804926 AND2_BASIC_GEN PARAMS:
+  VDD=1 VSS=0 VTHRESH=500E-3
X_U6_U12         U6_N16824138 U6_N33832 BUF_DELAY_BASIC_GEN PARAMS: VDD=1 VSS=0
+  VTHRESH=0.5 DELAY=10n
C_U6_C4         AGND ISENSE_HS1  22p  TC=0,0 
X_U6_S10    U6_DRVL2 AGND U6_N16791192 AGND Driver_U6_S10 
V_U6_V1         U6_N16766847 U6_N16815761 0.2V
X_U6_U2         U6_N16928714 U6_N16928722 U6_DRVH1 AND2_BASIC_GEN PARAMS: VDD=1
+  VSS=0 VTHRESH=500E-3
V_V3         VOUT_LOW AGND 0
X_L1         SW1 VOUT1 LDCR PARAMS: L=470n DCR=20m
C_U4_C2         AGND U4_N10915  500f IC=0 
V_U4_V1         U4_N11301 AGND 1.2
X_U4_U13         U4_N16784396 U4_N16778180 TOFF1 COMP_BASIC_GEN PARAMS: VDD=1
+  VSS=0 VTHRESH=0.5
X_U4_U690         U4_N16831914 N16831902 U4_N16831899 U4_N16831886 U4_N16831917
+  U4_N16831886 dffsbrb_nodelay PARAMS:  VDD=1 VSS=0 VTHRESH=0.5
X_U4_S3    U4_N16820589 AGND U4_N16820333 AGND TOFF_GEN_U4_S3 
X_U4_U691         U4_N16831914 MIN_TOFF2_PULSE one_shot PARAMS:  T=2  
G_U4_ABMII4         AGND U4_N16784396 VALUE { V(VIN1_0)*V(FSW)*5u    }
X_U4_U11         U4_N16820333 U4_N16820329 d_d1 PARAMS:
E_U4_ABM5         U4_DUTY 0 VALUE { V(VO)/(V(VIN1_0)+1u)    }
E_U4_ABM3         U4_N16778180 0 VALUE { 1000*V(VIN1_0)
+  -1000*V(VO)-50*V(VIN1_0)*V(FSW)    }
X_U4_U9         U4_N14874 U4_N10915 N343642 COMP_BASIC_GEN PARAMS: VDD=1 VSS=0
+  VTHRESH=0.5
X_U4_U692         MIN_TOFF2_PULSE U4_N16831917 INV_BASIC_GEN PARAMS: VDD=1
+  VSS=0 VTHRESH=500E-3
C_U4_C5         AGND U4_N16820671  5f  
X_U4_U31         HS2_ON PSM2 SDWN U4_N16820589 OR3_BASIC_GEN PARAMS: VDD=1
+  VSS=0 VTHRESH=500E-3
V_U4_V2         U4_N14874 AGND 1
I_U4_I2         U4_N16820329 U4_N16820333 DC 10u  
X_U4_U688         U4_N16831407 MIN_TOFF1_PULSE one_shot PARAMS:  T=2  
E_U4_ABM8         U4_N16778331 0 VALUE { IF(V(VOUT_HIGH)<0.5,
+  0.98*(1000*V(VIN1_0) -1000*V(VO)-50*V(VIN1_0)*V(FSW)),2*0.98*(1000*V(VIN1_0)
+  -1000*V(VO)-50*V(VIN1_0)*V(FSW)))    }
V_U4_V3         U4_N16820546 AGND 1
X_U4_S2    N343642 AGND U4_N16784396 AGND TOFF_GEN_U4_S2 
X_U4_S1    U4_N16806268 AGND U4_N10915 AGND TOFF_GEN_U4_S1 
X_U4_U647         MIN_TOFF1_PULSE U4_N16831409 INV_BASIC_GEN PARAMS: VDD=1
+  VSS=0 VTHRESH=500E-3
G_U4_ABMII5         AGND U4_N16820671 VALUE { V(VIN1_0)*V(FSW)*5u    }
X_U4_S4    N360213 AGND U4_N16820671 AGND TOFF_GEN_U4_S4 
X_U4_U30         HS1_ON PSM1 SDWN U4_N16806268 OR3_BASIC_GEN PARAMS: VDD=1
+  VSS=0 VTHRESH=500E-3
E_U4_ABM7         FSW 0 VALUE { LIMIT(2.5+5.471*(V(U4_DUTY)-0.45),0.5,2.5)    }
X_U4_U12         U4_N16820546 U4_N16820333 N360213 COMP_BASIC_GEN PARAMS: VDD=1
+  VSS=0 VTHRESH=0.5
C_U4_C3         AGND U4_N16784396  5f  
V_U4_V7         U4_N16831379 AGND 1Vdc
X_U4_U10         U4_N10915 U4_N11301 d_d1 PARAMS:
X_U4_U644         HS1_ON U4_N16831392 INV_BASIC_GEN PARAMS: VDD=1 VSS=0
+  VTHRESH=500E-3
C_U4_C4         AGND U4_N16820333  500f IC=0 
V_U4_V8         U4_N16831886 AGND 1Vdc
V_U4_V4         U4_N16820329 AGND 1.2
X_U4_U14         U4_N16820671 U4_N16778331 TOFF2 COMP_BASIC_GEN PARAMS: VDD=1
+  VSS=0 VTHRESH=0.5
X_U4_U689         HS2_ON U4_N16831899 INV_BASIC_GEN PARAMS: VDD=1 VSS=0
+  VTHRESH=500E-3
I_U4_I1         U4_N11301 U4_N10915 DC 10u  
X_U4_U606         U4_N16831407 N16831395 U4_N16831392 U4_N16831379 U4_N16831409
+  U4_N16831379 dffsbrb_nodelay PARAMS:  VDD=1 VSS=0 VTHRESH=0.5
R_U10_R1         U10_N16779370 U10_N16572336  14.4k  
R_U10_R5         U10_N3834371 U10_N383403  1  
X_U10_U700         U10_N16779912 SS_TR U10_N16779850 COMP_BASIC_GEN PARAMS:
+  VDD=1 VSS=0 VTHRESH=0.5
C_U10_C1         0 U10_N16572336  1n  
X_U10_S19    PG_ON AGND PG AGND PGOOD_U10_S19 
C_U10_C4         AGND U10_N383403  1n  
X_U10_U648         U10_N16780664 U10_N16780672 TRACK_DOWN N16781376
+  srlatchrhp_basic_gen PARAMS: VDD=1 VSS=0 VTHRESH=0.5
G_U10_ABMII4         VO AGND VALUE { IF(V(U10_N16782065) > 0.5, 160m,0)    }
X_U10_U699         U10_N16763839 U10_N16765442 U10_N16763803 N16763815
+  srlatchshp_basic_gen PARAMS: VDD=1 VSS=0 VTHRESH=0.5
X_U10_U12         VSEL U10_N383403 U10_VOUT2_EN COMP_BASIC_GEN PARAMS: VDD=1
+  VSS=0 VTHRESH=0.5
X_U10_S2    U10_VOUT2_EN AGND RS AGND PGOOD_U10_S2 
X_U10_U714         PG_ON U10_N16788392 INV_BASIC_GEN PARAMS: VDD=1 VSS=0
+  VTHRESH=500E-3
X_U10_U30         TRACK_DOWN SDWN U10_N16784401 OR2_BASIC_GEN PARAMS: VDD=1
+  VSS=0 VTHRESH=500E-3
V_U10_V6         U10_N16779912 AGND 5.94
X_U10_U614         FB U10_N16572266 U10_N16572254 U10_N16779370
+  COMPHYS_BASIC_GEN PARAMS: VDD=1 VSS=0 VTHRESH=0.5
E_U10_ABM6         U10_N16785126 0 VALUE { IF(V(U10_N16769533)>0.5,
+  V(U10_MODE_ONE), V(U10_N16763803))    }
X_U10_U703         VO U10_N16781920 U10_N16781891 COMP_BASIC_GEN PARAMS: VDD=1
+  VSS=0 VTHRESH=0.5
E_U10_ABM10         U10_DOWNTRACK_STILL_THR 0 VALUE { IF(V(VREF) <
+  V(SS_TR)+1u,1,0)    }
V_U10_V1         U10_N16572254 AGND 24m
V_U10_V3         U10_N16572266 AGND 0.576
X_U10_U712         U10_N16784401 U10_N16781891 U10_N16782065 AND2_BASIC_GEN
+  PARAMS: VDD=1 VSS=0 VTHRESH=500E-3
X_U10_U25         AGND VO d_d1 PARAMS:
E_U10_ABM8         U10_N3840571 0 VALUE { (V(U10_MODE_ONE)* -200m +0.85)    }
X_U10_U711         COMP_GRT_440M U10_DOWNTRACK_STILL_THR U10_N16780672
+  AND2_BASIC_GEN PARAMS: VDD=1 VSS=0 VTHRESH=500E-3
V_U10_V7         U10_N16781920 AGND 1
R_U10_R7         U10_N3840571 U10_N384043  1  
E_U10_ABM9         U10_N3834371 0 VALUE { (V(U10_VOUT2_EN)* -200m +0.85)    }
C_U10_C7         AGND U10_N384043  1n  
X_U10_U701         PG_ON U10_N16780817 one_shot PARAMS:  T=5  
X_U10_U710         PG_ON U10_N16785606 INV_BASIC_GEN PARAMS: VDD=1 VSS=0
+  VTHRESH=500E-3
X_U10_U709         U10_N16785126 U10_N16785606 FCCM AND2_BASIC_GEN PARAMS:
+  VDD=1 VSS=0 VTHRESH=500E-3
X_U10_U13         MODE U10_N384043 U10_MODE_ONE COMP_BASIC_GEN PARAMS: VDD=1
+  VSS=0 VTHRESH=0.5
X_U10_U705         U10_N16781891 U10_N16782845 INV_BASIC_GEN PARAMS: VDD=1
+  VSS=0 VTHRESH=500E-3
X_U10_U688         U10_N16779850 U10_N16780817 U10_N16780664 AND2_BASIC_GEN
+  PARAMS: VDD=1 VSS=0 VTHRESH=500E-3
X_U10_U612         SDWN_N U10_N16572336 U10_N16572336 PG_ON NAND3_BASIC_GEN
+  PARAMS: VDD=1 VSS=0 VTHRESH=500E-3
X_U10_S20    U10_N16782865 AGND VO AGND PGOOD_U10_S20 
X_U10_U713         U10_N16784401 U10_N16782845 U10_N16782865 AND2_BASIC_GEN
+  PARAMS: VDD=1 VSS=0 VTHRESH=500E-3
X_U10_U696         U10_MODE_ONE U10_N16765442 INV_BASIC_GEN PARAMS: VDD=1 VSS=0
+  VTHRESH=500E-3
X_U10_U7         U10_N16572336 U10_N16779370 d_d1 PARAMS:
V_U10_V4         U10_N16769533 AGND {SS}
X_U10_U698         U10_N16788392 U10_N16763839 one_shot PARAMS:  T=50  
X_U2_S1    U2_N14446536 AGND SS_TR AGND SoftStart_U2_S1 
X_U2_U30         U2_N14446745 SDWN_N d_d1 PARAMS:
C_U2_C8         AGND U2_VREF2  1n  
X_U2_U28         U2_N14446240 SDWN_N d_d1 PARAMS:
R_U2_R11         U2_N14444998 U2_VREF2  1  
C_U2_C7         SS_TR AGND  1p  
X_U2_U31         U2_N14446745 U2_N14445314 INV_BASIC_GEN PARAMS: VDD=1 VSS=0
+  VTHRESH=500E-3
X_U2_U26         U2_SS_TR_1 U2_N14444954 d_d1 PARAMS:
V_U2_V1         U2_N221204 AGND 2V
G_U2_ABMII1         U2_N221204 SS_TR VALUE { V(SDWN_N)*5.25u    }
X_U2_U29         U2_N14446240 U2_N14446536 INV_BASIC_GEN PARAMS: VDD=1 VSS=0
+  VTHRESH=500E-3
E_U2_ABM2         U2_N222011 0 VALUE { {(LIMIT(V(SS_TR), 0, 0.6)  
+ )*1}   }
X_U2_S2    U2_N14445314 AGND U2_SS_TR_1 AGND SoftStart_U2_S2 
C_U2_C5         AGND U2_VREF1  1n  
R_U2_R10         U2_N222011 U2_VREF1  1  
C_U2_C9         U2_SS_TR_1 AGND  700p  
C_U2_C10         AGND U2_N14446240  1n  
E_U2_ABM4         VREF 0 VALUE { {IF(V(U2_VREF1) >
+  V(U2_VREF2),V(U2_VREF2),V(U2_VREF1))}    }
V_U2_V2         U2_N14444954 AGND 2V
X_U2_U8         SS_TR U2_N221204 d_d1 PARAMS:
R_U2_R12         SDWN_N U2_N14446240  288.6k  
G_U2_ABMII2         U2_N14444954 U2_SS_TR_1 VALUE { V(SDWN_N)*5.25u    }
C_U2_C11         AGND U2_N14446745  1n  
E_U2_ABM3         U2_N14444998 0 VALUE { {(LIMIT(V(U2_SS_TR_1), 0, 0.6)  
+ )*1}   }
R_U2_R13         SDWN_N U2_N14446745  288.6k  
X_L2         SW2 VOUT2 LDCR PARAMS: L=470n DCR=20m
V_U7_V7         U7_N01878 AGND 1
X_U7_U27         HS1_ON U7_N00629 INV_BASIC_GEN PARAMS: VDD=1 VSS=0
+  VTHRESH=500E-3
X_U7_U29         HS2_ON U7_N02030 INV_BASIC_GEN PARAMS: VDD=1 VSS=0
+  VTHRESH=500E-3
C_U7_C6         AGND U7_N00337  1p  
I_U7_I3         U7_N00333 U7_N00337 DC 10u  
X_U7_U28         U7_N02030 SDWN U7_N01996 OR2_BASIC_GEN PARAMS: VDD=1 VSS=0
+  VTHRESH=500E-3
X_U7_U20         U7_N01738 U7_N01878 MIN_TON2 COMP_BASIC_GEN PARAMS: VDD=1
+  VSS=0 VTHRESH=0.5
V_U7_V6         U7_N00333 AGND 1.2
V_U7_V5         U7_N00477 AGND 1
X_U7_S6    U7_N01996 AGND U7_N01738 AGND MIN_TON_U7_S6 
X_U7_U18         U7_N01738 U7_N01734 d_d1 PARAMS:
X_U7_U26         U7_N00629 SDWN U7_N00595 OR2_BASIC_GEN PARAMS: VDD=1 VSS=0
+  VTHRESH=500E-3
X_U7_U19         U7_N00337 U7_N00477 MIN_TON1 COMP_BASIC_GEN PARAMS: VDD=1
+  VSS=0 VTHRESH=0.5
X_U7_S5    U7_N00595 AGND U7_N00337 AGND MIN_TON_U7_S5 
X_U7_U17         U7_N00337 U7_N00333 d_d1 PARAMS:
C_U7_C7         AGND U7_N01738  1p  
I_U7_I4         U7_N01734 U7_N01738 DC 10u  
V_U7_V8         U7_N01734 AGND 1.2
X_Current_limit_FB_U692         LS2_ON CUR_LIM2 Current_limit_FB_N16762984
+  AND2_BASIC_GEN PARAMS: VDD=1 VSS=0 VTHRESH=500E-3
X_Current_limit_FB_S21    Current_limit_FB_P2 AGND Current_limit_FB_N16763394
+  AGND Current_limit_Current_limit_FB_S21 
E_Current_limit_FB_ABM180         FAULT_1 0 VALUE {
+  IF(V(Current_limit_FB_N16760568) >2.5, 1,0)    }
X_Current_limit_FB_U687         Current_limit_FB_N16760374
+  Current_limit_FB_N16760378 Current_limit_FB_P1 AND2_BASIC_GEN PARAMS: VDD=1
+  VSS=0 VTHRESH=500E-3
G_Current_limit_FB_ABMII3         Current_limit_FB_N16763380
+  Current_limit_FB_N16763394 VALUE { V(Current_limit_FB_P1)*1m    }
X_Current_limit_FB_U684         LS1_ON CUR_LIM1 Current_limit_FB_N16760128
+  AND2_BASIC_GEN PARAMS: VDD=1 VSS=0 VTHRESH=500E-3
X_Current_limit_FB_U693         Current_limit_FB_N16762984
+  Current_limit_FB_N16763020 Current_limit_FB_N16763230 N16763248
+  srlatchrhp_basic_gen PARAMS: VDD=1 VSS=0 VTHRESH=0.5
C_Current_limit_FB_C39         AGND Current_limit_FB_N16760568  1n IC=0 
X_Current_limit_FB_D92         Current_limit_FB_N16763394
+  Current_limit_FB_N16763380 d_d1 PARAMS:
X_Current_limit_FB_U696         Current_limit_FB_N16763230
+  Current_limit_FB_N16763354 INV_BASIC_GEN PARAMS: VDD=1 VSS=0 VTHRESH=500E-3
X_Current_limit_FB_U690         Current_limit_FB_N16761474
+  Current_limit_FB_N16760378 one_shot PARAMS:  T=5  
X_Current_limit_FB_S20    Current_limit_FB_P2 AGND Current_limit_FB_N16760568
+  AGND Current_limit_Current_limit_FB_S20 
X_Current_limit_FB_U697         Current_limit_FB_N16763354
+  Current_limit_FB_N16763234 Current_limit_FB_P2 AND2_BASIC_GEN PARAMS: VDD=1
+  VSS=0 VTHRESH=500E-3
X_Current_limit_FB_U685         Current_limit_FB_N16760128
+  Current_limit_FB_N16760164 Current_limit_FB_N16760374 N16760392
+  srlatchrhp_basic_gen PARAMS: VDD=1 VSS=0 VTHRESH=0.5
R_Current_limit_FB_R51         Current_limit_FB_N16763020
+  Current_limit_FB_N16763102  8k  
G_Current_limit_FB_ABMII2         Current_limit_FB_N16760550
+  Current_limit_FB_N16760568 VALUE { V(Current_limit_FB_P1)*1m    }
V_Current_limit_FB_V32         Current_limit_FB_N16763380 AGND 5
X_Current_limit_FB_U688         Current_limit_FB_N16760374
+  Current_limit_FB_N16760524 INV_BASIC_GEN PARAMS: VDD=1 VSS=0 VTHRESH=500E-3
X_Current_limit_FB_D90         Current_limit_FB_N16760568
+  Current_limit_FB_N16760550 d_d1 PARAMS:
R_Current_limit_FB_R50         Current_limit_FB_N16760164
+  Current_limit_FB_N16760246  8k  
X_Current_limit_FB_U689         Current_limit_FB_N16760524
+  Current_limit_FB_N16760378 Current_limit_FB_P2 AND2_BASIC_GEN PARAMS: VDD=1
+  VSS=0 VTHRESH=500E-3
X_Current_limit_FB_U691         LS1_ON Current_limit_FB_N16761474 INV_BASIC_GEN
+  PARAMS: VDD=1 VSS=0 VTHRESH=500E-3
C_Current_limit_FB_C40         AGND Current_limit_FB_N16763020  1p IC=0 TC=0,0 
X_Current_limit_FB_U694         LS2_ON Current_limit_FB_N16763102 INV_BASIC_GEN
+  PARAMS: VDD=1 VSS=0 VTHRESH=500E-3
V_Current_limit_FB_V31         Current_limit_FB_N16760550 AGND 5
C_Current_limit_FB_C38         AGND Current_limit_FB_N16760164  1p IC=0 TC=0,0 
E_Current_limit_FB_ABM181         FAULT_2 0 VALUE {
+  IF(V(Current_limit_FB_N16763394) >2.5, 1,0)    }
X_Current_limit_FB_D91         Current_limit_FB_N16763020
+  Current_limit_FB_N16763102 d_d1 PARAMS:
X_Current_limit_FB_U686         LS1_ON Current_limit_FB_N16760246 INV_BASIC_GEN
+  PARAMS: VDD=1 VSS=0 VTHRESH=500E-3
X_Current_limit_FB_U698         Current_limit_FB_N16763722
+  Current_limit_FB_N16763234 one_shot PARAMS:  T=5  
X_Current_limit_FB_U695         Current_limit_FB_N16763230
+  Current_limit_FB_N16763234 Current_limit_FB_P1 AND2_BASIC_GEN PARAMS: VDD=1
+  VSS=0 VTHRESH=500E-3
X_Current_limit_FB_D65         Current_limit_FB_N16760164
+  Current_limit_FB_N16760246 d_d1 PARAMS:
C_Current_limit_FB_C41         AGND Current_limit_FB_N16763394  1n IC=0 
X_Current_limit_FB_U699         LS2_ON Current_limit_FB_N16763722 INV_BASIC_GEN
+  PARAMS: VDD=1 VSS=0 VTHRESH=500E-3
V_V4         VOUT_HIGH AGND 0
C_U3_C3         AGND COMP  73f  
C_U3_C2         U3_N167754080 COMP  50p  
R_U3_R1         COMP AGND  40Meg  
X_U3_U7         AGND COMP d_d1 PARAMS:
X_U3_S1    SDWN AGND COMP AGND ErrorAmp_U3_S1 
C_U3_C7         FB VO  10p  TC=0,0 
R_U3_R2         AGND U3_N167754080  200k  
X_U3_U8         COMP U3_N324153 d_d1 PARAMS:
V_U3_VCLAMPH         U3_N324153 AGND 2.6
G_U3_ABM2I1         AGND COMP VALUE { LIMIT(((V(VREF) -V(FB))*60u),-4u,4u)    }
R_R6         TG AGND  1G TC=0,0 
R_R8         VSEL AGND  1G TC=0,0 
X_U9_U626         FCCM_32CYCLES U9_N16813132 INV_BASIC_GEN PARAMS: VDD=1 VSS=0
+  VTHRESH=500E-3
X_U9_U621         COMP_GRT_440M PSM1_ON PSM1 PSM_TOFF1 AND3_BASIC_GEN PARAMS:
+  VDD=1 VSS=0 VTHRESH=500E-3
V_U9_V12         U9_N16855589 AGND 10m
X_U9_U627         COMP U9_N16828460 COMP_GRT_440M COMP_BASIC_GEN PARAMS: VDD=1
+  VSS=0 VTHRESH=0.5
V_U9_V2         U9_N16777158 AGND 440m
X_U9_U614         COMP U9_N16825708 U9_N16825853 U9_N16855360 COMPHYS_BASIC_GEN
+  PARAMS: VDD=1 VSS=0 VTHRESH=0.5
X_U9_U648         U9_N16855360 U9_N16855376 PHASE2_NO N16855643
+  srlatchrhp_basic_gen PARAMS: VDD=1 VSS=0 VTHRESH=0.5
X_U9_U12         U9_N28058 ISENSE_LS1 PSM1_ON COMP_BASIC_GEN PARAMS: VDD=1
+  VSS=0 VTHRESH=0.5
X_U9_U14         U9_N16791097 PSM_TOFF1 U9_N28030 N28036 srlatchrhp_basic_gen
+  PARAMS: VDD=1 VSS=0 VTHRESH=0.5
X_U9_U647         U9_MODE_DELAY U9_N16832665 INV_BASIC_GEN PARAMS: VDD=1 VSS=0
+  VTHRESH=500E-3
X_U9_U18         U9_N16822737 PSM_TOFF2 U9_N16813098 N16778165
+  srlatchrhp_basic_gen PARAMS: VDD=1 VSS=0 VTHRESH=0.5
V_U9_V9         U9_N16830133 AGND 1
X_U9_U20         SDWN_N U9_COMP_GRT_B U9_N16822737 AND2_BASIC_GEN PARAMS: VDD=1
+  VSS=0 VTHRESH=500E-3
V_U9_V6         U9_N16825708 AGND 1.2
X_U9_U10         U9_N16830063 U9_N16830059 d_d1 PARAMS:
X_U9_U687         U9_N16858913 U9_N16859505 INV_BASIC_GEN PARAMS: VDD=1 VSS=0
+  VTHRESH=500E-3
V_U9_V3         U9_N16778171 AGND 5m
X_U9_U13         COMP U9_N16777158 U9_N16812626 COMP_BASIC_GEN PARAMS: VDD=1
+  VSS=0 VTHRESH=0.5
C_U9_C2         AGND U9_N16830063  12.8p  
I_U9_I1         U9_N16830059 U9_N16830063 DC 1u  
X_U9_U649         U9_N16855451 COMP U9_N16855589 U9_N16855592 COMPHYS_BASIC_GEN
+  PARAMS: VDD=1 VSS=0 VTHRESH=0.5
V_U9_V1         U9_N28058 AGND 5m
X_U9_S1    U9_N16832627 AGND U9_N16830063 AGND PSM_U9_S1 
X_U9_U690         PG_ON U9_N16900194 INV_BASIC_GEN PARAMS: VDD=1 VSS=0
+  VTHRESH=500E-3
X_U9_U31         FCCM_32CYCLES U9_N16813033 INV_BASIC_GEN PARAMS: VDD=1 VSS=0
+  VTHRESH=500E-3
X_U9_U688         U9_N16855592 U9_N16859505 U9_N16855376 AND2_BASIC_GEN PARAMS:
+  VDD=1 VSS=0 VTHRESH=500E-3
X_U9_U9         U9_N16830063 U9_N16830133 U9_MODE_DELAY COMP_BASIC_GEN PARAMS:
+  VDD=1 VSS=0 VTHRESH=0.5
X_U9_U617         U9_N16812626 U9_COMP_GRT_B INV_BASIC_GEN PARAMS: VDD=1 VSS=0
+  VTHRESH=500E-3
V_U9_V11         U9_N16855451 AGND 600m
V_U9_V10         U9_N16830059 AGND 1.2
V_U9_V7         U9_N16825853 AGND 0
V_U9_V4         U9_N16832636 AGND 1Vdc
X_U9_U624         U9_N28030 U9_N16813033 PSM1 AND2_BASIC_GEN PARAMS: VDD=1
+  VSS=0 VTHRESH=500E-3
V_U9_V8         U9_N16828460 AGND 440m
X_U9_U689         U9_N16830337 U9_N16900194 FCCM_32CYCLES AND2_BASIC_GEN
+  PARAMS: VDD=1 VSS=0 VTHRESH=500E-3
X_U9_U606         U9_N16832655 U9_N16832627 U9_N16832624 U9_N16832636
+  U9_N16832665 U9_N16832636 dffsbrb_nodelay PARAMS:  VDD=1 VSS=0 VTHRESH=0.5
X_U9_U623         PSM2_ON COMP_GRT_440M PSM2 PHASE2_NO PSM_TOFF2 AND4_BASIC_GEN
+  PARAMS: VDD=1 VSS=0 VTHRESH=500E-3
X_U9_U644         PHASE2_NO U9_N16832624 INV_BASIC_GEN PARAMS: VDD=1 VSS=0
+  VTHRESH=500E-3
X_U9_U17         U9_COMP_GRT_B SDWN_N U9_N16791097 AND2_BASIC_GEN PARAMS: VDD=1
+  VSS=0 VTHRESH=500E-3
X_U9_U625         U9_N16813098 U9_N16813132 PSM2 AND2_BASIC_GEN PARAMS: VDD=1
+  VSS=0 VTHRESH=500E-3
X_U9_U685         PHASE2_NO U9_N16858913 one_shot PARAMS:  T=40000  
X_U9_U15         U9_N16778171 ISENSE_LS2 PSM2_ON COMP_BASIC_GEN PARAMS: VDD=1
+  VSS=0 VTHRESH=0.5
X_U9_U33         U9_N16833884 FCCM U9_N16830337 OR2_BASIC_GEN PARAMS: VDD=1
+  VSS=0 VTHRESH=500E-3
X_U9_U646         U9_MODE_DELAY U9_N16832655 U9_N16833884 OR2_BASIC_GEN PARAMS:
+  VDD=1 VSS=0 VTHRESH=500E-3
.IC         V(SS_TR )={1.5*SS}
.IC         V(U2_SS_TR_1 )={1.5*SS}
.IC         V(COMP )=0
.ENDS TPSM82480_TRANS
*$
.subckt Driver_U6_H6 1 2 3 4  
H_U6_H6         3 4 VH_U6_H6 0.5
VH_U6_H6         1 2 0V
.ends Driver_U6_H6
*$
.subckt Driver_U6_S4 1 2 3 4  
S_U6_S4         3 4 1 2 _U6_S4
RS_U6_S4         1 2 1G
.MODEL         _U6_S4 VSWITCH Roff=10e6 Ron=29m Voff=0.2 Von=0.8
.ends Driver_U6_S4
*$
.subckt Driver_U6_S11 1 2 3 4  
S_U6_S11         3 4 1 2 _U6_S11
RS_U6_S11         1 2 1G
.MODEL         _U6_S11 VSWITCH Roff=10e6 Ron=36m Voff=0.2 Von=0.8
.ends Driver_U6_S11
*$
.subckt Driver_U6_H5 1 2 3 4  
H_U6_H5         3 4 VH_U6_H5 0.5
VH_U6_H5         1 2 0V
.ends Driver_U6_H5
*$
.subckt Driver_U6_H1 1 2 3 4  
H_U6_H1         3 4 VH_U6_H1 0.5
VH_U6_H1         1 2 0V
.ends Driver_U6_H1
*$
.subckt Driver_U6_S3 1 2 3 4  
S_U6_S3         3 4 1 2 _U6_S3
RS_U6_S3         1 2 1G
.MODEL         _U6_S3 VSWITCH Roff=10e6 Ron=36m Voff=0.2 Von=0.8
.ends Driver_U6_S3
*$
.subckt Driver_U6_H3 1 2 3 4  
H_U6_H3         3 4 VH_U6_H3 0.5
VH_U6_H3         1 2 0V
.ends Driver_U6_H3
*$
.subckt Driver_U6_S10 1 2 3 4  
S_U6_S10         3 4 1 2 _U6_S10
RS_U6_S10         1 2 1G
.MODEL         _U6_S10 VSWITCH Roff=10e6 Ron=29m Voff=0.2 Von=0.8
.ends Driver_U6_S10
*$
.subckt TOFF_GEN_U4_S3 1 2 3 4  
S_U4_S3         3 4 1 2 _U4_S3
RS_U4_S3         1 2 1G
.MODEL         _U4_S3 VSWITCH Roff=10e6 Ron=1.0 Voff=0.2 Von=0.8
.ends TOFF_GEN_U4_S3
*$
.subckt TOFF_GEN_U4_S2 1 2 3 4  
S_U4_S2         3 4 1 2 _U4_S2
RS_U4_S2         1 2 1G
.MODEL         _U4_S2 VSWITCH Roff=1e9 Ron=1 Voff=0.2 Von=0.8
.ends TOFF_GEN_U4_S2
*$
.subckt TOFF_GEN_U4_S1 1 2 3 4  
S_U4_S1         3 4 1 2 _U4_S1
RS_U4_S1         1 2 1G
.MODEL         _U4_S1 VSWITCH Roff=10e6 Ron=1.0 Voff=0.2 Von=0.8
.ends TOFF_GEN_U4_S1
*$
.subckt TOFF_GEN_U4_S4 1 2 3 4  
S_U4_S4         3 4 1 2 _U4_S4
RS_U4_S4         1 2 1G
.MODEL         _U4_S4 VSWITCH Roff=1e9 Ron=1 Voff=0.2 Von=0.8
.ends TOFF_GEN_U4_S4
*$
.subckt PGOOD_U10_S19 1 2 3 4  
S_U10_S19         3 4 1 2 _U10_S19
RS_U10_S19         1 2 1G
.MODEL         _U10_S19 VSWITCH Roff=100e6 Ron=50 Voff=0.4 Von=0.8
.ends PGOOD_U10_S19
*$
.subckt PGOOD_U10_S2 1 2 3 4  
S_U10_S2         3 4 1 2 _U10_S2
RS_U10_S2         1 2 1G
.MODEL         _U10_S2 VSWITCH Roff=100e6 Ron=1k Voff=0.2V Von=0.8
.ends PGOOD_U10_S2
*$
.subckt PGOOD_U10_S20 1 2 3 4  
S_U10_S20         3 4 1 2 _U10_S20
RS_U10_S20         1 2 1G
.MODEL         _U10_S20 VSWITCH Roff=100e9 Ron=10 Voff=0.2V Von=0.8
.ends PGOOD_U10_S20
*$
.subckt SoftStart_U2_S1 1 2 3 4  
S_U2_S1         3 4 1 2 _U2_S1
RS_U2_S1         1 2 1G
.MODEL         _U2_S1 VSWITCH Roff=1e9 Ron=100 Voff=0.2 Von=0.8
.ends SoftStart_U2_S1
*$
.subckt SoftStart_U2_S2 1 2 3 4  
S_U2_S2         3 4 1 2 _U2_S2
RS_U2_S2         1 2 1G
.MODEL         _U2_S2 VSWITCH Roff=1e9 Ron=100 Voff=0.2 Von=0.8
.ends SoftStart_U2_S2
*$
.subckt MIN_TON_U7_S6 1 2 3 4  
S_U7_S6         3 4 1 2 _U7_S6
RS_U7_S6         1 2 1G
.MODEL         _U7_S6 VSWITCH Roff=10e6 Ron=1m Voff=0.2 Von=0.8
.ends MIN_TON_U7_S6
*$
.subckt MIN_TON_U7_S5 1 2 3 4  
S_U7_S5         3 4 1 2 _U7_S5
RS_U7_S5         1 2 1G
.MODEL         _U7_S5 VSWITCH Roff=10e6 Ron=1m Voff=0.2 Von=0.8
.ends MIN_TON_U7_S5
*$
.subckt Current_limit_Current_limit_FB_S21 1 2 3 4  
S_Current_limit_FB_S21         3 4 1 2 _Current_limit_FB_S21
RS_Current_limit_FB_S21         1 2 1G
.MODEL         _Current_limit_FB_S21 VSWITCH Roff=1e10 Ron=10m Voff=0.2
+  Von=0.8
.ends Current_limit_Current_limit_FB_S21
*$
.subckt Current_limit_Current_limit_FB_S20 1 2 3 4  
S_Current_limit_FB_S20         3 4 1 2 _Current_limit_FB_S20