* TRF1208 - Rev. A
* Created by Sean Cashin; 2022-07-14
* Created with Green-Williams-Lis Current Sense Amp Macro-model Architecture
* Copyright 2022 by Texas Instruments Corporation
******************************************************
* MACRO-MODEL SIMULATED PARAMETERS:
******************************************************
* AC PARAMETERS
**********************
* CLOSED-LOOP OUTPUT IMPEDANCE VS. FREQUENCY (Zout vs. Freq.)
* CLOSED-LOOP GAIN AND PHASE VS. FREQUENCY  WITH RL, CL EFFECTS (Acl vs. Freq.)
* COMMON-MODE REJECTION RATIO VS. FREQUENCY (CMRR vs. Freq.)
* POWER SUPPLY REJECTION RATIO VS. FREQUENCY (PSRR vs. Freq.)
* INPUT VOLTAGE NOISE DENSITY VS. FREQUENCY (en vs. Freq.)
**********************
* DC PARAMETERS
**********************
* INPUT COMMON-MODE VOLTAGE RANGE (Vcm)
* GAIN ERROR (Eg)
* INPUT BIAS CURRENT VS. INPUT COMMON-MODE VOLTAGE (Ib vs. Vcm)
* INPUT OFFSET VOLTAGE VS. TEMPERATURE (Vos vs. Temp)
* OUTPUT VOLTAGE SWING vs. OUTPUT CURRENT (Vout vs. Iout)
* SHORT-CIRCUIT OUTPUT CURRENT (Isc)
* QUIESCENT CURRENT (Iq)
**********************
* TRANSIENT PARAMETERS
**********************
* SLEW RATE (SR)
* SETTLING TIME VS. CAPACITIVE LOAD (ts)
* OVERLOAD RECOVERY TIME (tor)
******************************************************
.subckt TRF1208 INp INm OUTp OUTm VDD GND PD
******************************************************
C_C1         N505726 N505736  1.6E-12   
C_C2         N505748 N505758  1.6E-12   
C_C20         GND PPD  2E-12   
C_C22         N505770 N505780  1.6E-12   
C_C23         N505792 N505802  1.6E-12   
C_C24         N505814 PSRRP  1.6E-12   
C_C30         N852644 MID  350E-15   
C_C5         CMRR N462608  16E-9   
C_C6         N852598 N518741  22.74E-15   
C_CINP         MID INP  50E-15   
C_CINP2         INM MID  50E-15   
C_CMID         0 PREMID  1E-3   
E_E5         ZO1 ZO2 N518741 MID -1
E_E8         MID 0 PREMID 0 1
G_G1         N505726 MID VCC_B GND -0.35
G_G10         VCC_CLPP VEE_B VIMONP 0 1
G_G11         VEE_CLPP VDD VDD GND 1
G_G12         VEE_CLPP VDD 0 VIMONP -1
G_G13         LOWPOWERAOL MID N463418 N464324 -1E-3
G_G16         N460572 GND N460322 GND -1
G_G17         GND GND N461004 GND 1
G_G18         N460322 GND VIMONP GND -1
G_G19         N461004 GND GND VIMONP -1
G_G23         N505748 MID N505736 MID -1
G_G24         N505792 MID N505780 MID -1
G_G25         N505814 MID N505802 MID -1
G_G29         N534370 GND VIMONM GND -1
G_G3         N505770 MID N505758 MID -1
G_G30         N534518 GND N534370 GND -1
G_G31         N534588 GND GND VIMONM -1
G_G32         GND GND N534588 GND 1
G_G33         VCC_CLPM VEE_B VDD VEE_B -1
G_G34         VCC_CLPM VEE_B VIMONP 0 1
G_G35         VEE_CLPM VDD VDD GND 1
G_G36         VEE_CLPM VDD 0 VIMONM -1
G_G38         N852640 MID LOWPOWERAOL MID -4.825
G_G39         N852598 MID N852644 MID 2.162
G_G4         VCC_B 0 VDD 0 -1
G_G5         VEE_B 0 GND 0 -1
G_G6         N462608 MID INP MID -0.18
G_G9         VCC_CLPP VEE_B VDD VEE_B -1
G_GCMRR         N463410 N463406 CMRR MID -1E-3
G_GPSRR         N463418 N463410 PSRRP MID -1E-3
I_I2         VCC_CLPP VEE_B DC 0  
I_I3         VDD VEE_CLPP DC 0  
I_I4         VCC_CLPM VEE_B DC 0  
I_I5         VDD VEE_CLPM DC 0  
I_IBPD         PD GND DC 50E-6  
I_IQ1         VDD N465370 DC -131E-3  
I_IQ2         VDD N465482 DC -7E-3  
L_L6         N852640 N852644  1E-9  
R_R1         MID N505726  1 TC=0,0 
R_R10         MID N852644  33 TC=0,0 
R_R11         MID N505792  1 TC=0,0 
R_R12         N464324 INM  1E-3 TC=0,0 
R_R13         MID N462608  1 TC=0,0 
R_R14         MID N505814  1 TC=0,0 
R_R15         MID PSRRP  500 TC=0,0 
R_R2         MID CMRR  0.1 TC=0,0 
R_R3         MID N505736  500 TC=0,0 
R_R31         VDD N460572  1E-3 TC=0,0 
R_R35         PPD PD  18E3 TC=0,0 
R_R42         N505736 N505726  1000 TC=0,0 
R_R43         N505758 N505748  1000 TC=0,0 
R_R44         N505780 N505770  1000 TC=0,0 
R_R45         N505802 N505792  1000 TC=0,0 
R_R46         PSRRP N505814  1000 TC=0,0 
R_R47         MID N505748  1 TC=0,0 
R_R48         MID N505770  1 TC=0,0 
R_R49         MID N505780  500 TC=0,0 
R_R5         CMRR N462608  10E3 TC=0,0 
R_R50         MID N505802  500 TC=0,0 
R_R6         MID N505758  500 TC=0,0 
R_R64         VDD N534518  1E-3 TC=0,0 
R_R69         N518741 N852598  1E3 TC=0,0 
R_R7         N463410 N463406  1E3 TC=0,0 
R_R71         MID N852598  1 TC=0,0 
R_R72         MID N518741  875 TC=0,0 
R_R9         N463418 N463410  1E3 TC=0,0 
R_RF3         INP MID  1E3 TC=0,0 
R_RF4         MID INM  1E3 TC=0,0 
R_RINM         MID INM  47E6 TC=0,0 
R_RINM1         0 VCC_B  1  
R_RINM3         PREMID VCC_B  1E3  
R_RINM4         0 PREMID  1E9 TC=0,0 
R_RINM5         VEE_B PREMID  1E3 TC=0,0 
R_RINP         INP MID  47E6 TC=0,0 
R_RIQ         N465370 VDD  115E3 TC=0,0 
R_RQ         GND N465482  1E-3 TC=0,0 
V_VDD1         N463406 INP -4.8E-3
X_H3    ZO2 OUTM VIMONM 0 8COMPLETE_H3_TRF1208 
X_H4    ZO1 OUTP VIMONP 0 8COMPLETE_H4_TRF1208 
X_S11    VIMONP 0 VCC_CLPP VEE_B 8COMPLETE_S11_TRF1208 
X_S12    0 VIMONP VEE_CLPP VDD 8COMPLETE_S12_TRF1208 
X_S29    PPD GND N465482 N465370 8COMPLETE_S29_TRF1208 
X_S30    VIMONP GND N460322 GND 8COMPLETE_S30_TRF1208 
X_S31    GND VIMONP N461004 GND 8COMPLETE_S31_TRF1208 
X_S34    VIMONM GND N534370 GND 8COMPLETE_S34_TRF1208 
X_S35    GND VIMONM N534588 GND 8COMPLETE_S35_TRF1208 
X_S36    OUTP VCC_CLPP LOWPOWERAOL MID 8COMPLETE_S36_TRF1208 
X_S37    VEE_CLPP OUTP LOWPOWERAOL MID 8COMPLETE_S37_TRF1208 
X_S38    OUTM VCC_CLPM LOWPOWERAOL MID 8COMPLETE_S38_TRF1208 
X_S39    VEE_CLPM OUTM LOWPOWERAOL MID 8COMPLETE_S39_TRF1208 
X_S40    VIMONP 0 VCC_CLPM VEE_B 8COMPLETE_S40_TRF1208 
X_S41    0 VIMONM VEE_CLPM VDD 8COMPLETE_S41_TRF1208 
X_S42    PPD GND N852640 MID 8COMPLETE_S42_TRF1208 
.ENDS  TRF1208
*
.SUBCKT 8COMPLETE_H3_TRF1208 1 2 3 4  
H_H3         3 4 VH_H3 1
VH_H3         1 2 0V
.ENDS  8COMPLETE_H3_TRF1208
*
.SUBCKT 8COMPLETE_H4_TRF1208 1 2 3 4  
H_H4         3 4 VH_H4 1
VH_H4         1 2 0V
.ENDS  8COMPLETE_H4_TRF1208
*
.SUBCKT 8COMPLETE_S11_TRF1208 1 2 3 4  
S_S11         3 4 1 2 _S11
RS_S11         1 2 1G
.MODEL         _S11 VSWITCH ROFF=1 RON=1E-3 VOFF=0.05 VON=0.1
.ENDS  8COMPLETE_S11_TRF1208
*
.SUBCKT 8COMPLETE_S12_TRF1208 1 2 3 4  
S_S12         3 4 1 2 _S12
RS_S12         1 2 1G
.MODEL         _S12 VSWITCH ROFF=1 RON=1E-3 VOFF=0.05 VON=0.1
.ENDS  8COMPLETE_S12_TRF1208
*
.SUBCKT 8COMPLETE_S29_TRF1208 1 2 3 4  
S_S29         3 4 1 2 _S29
RS_S29         1 2 1G
.MODEL         _S29 VSWITCH ROFF=1 RON=1E9 VOFF=0.8 VON=1.45
.ENDS  8COMPLETE_S29_TRF1208
*
.SUBCKT 8COMPLETE_S30_TRF1208 1 2 3 4  
S_S30         3 4 1 2 _S30
RS_S30         1 2 1G
.MODEL         _S30 VSWITCH ROFF=1E-6 RON=1 VOFF=0 VON=0.1E-3
.ENDS  8COMPLETE_S30_TRF1208
*
.SUBCKT 8COMPLETE_S31_TRF1208 1 2 3 4  
S_S31         3 4 1 2 _S31
RS_S31         1 2 1G
.MODEL         _S31 VSWITCH ROFF=1E-6 RON=1 VOFF=0 VON=0.1E-3
.ENDS  8COMPLETE_S31_TRF1208
*
.SUBCKT 8COMPLETE_S34_TRF1208 1 2 3 4  
S_S34         3 4 1 2 _S34
RS_S34         1 2 1G
.MODEL         _S34 VSWITCH ROFF=1E-6 RON=1 VOFF=0 VON=0.1E-3
.ENDS  8COMPLETE_S34_TRF1208
*
.SUBCKT 8COMPLETE_S35_TRF1208 1 2 3 4  
S_S35         3 4 1 2 _S35
RS_S35         1 2 1G
.MODEL         _S35 VSWITCH ROFF=1E-6 RON=1 VOFF=0 VON=0.1E-3
.ENDS  8COMPLETE_S35_TRF1208
*
.SUBCKT 8COMPLETE_S36_TRF1208 1 2 3 4  
S_S36         3 4 1 2 _S36
RS_S36         1 2 1G
.MODEL         _S36 VSWITCH ROFF=4E3 RON=1 VOFF=-10E-3 VON=10E-3
.ENDS  8COMPLETE_S36_TRF1208
*
.SUBCKT 8COMPLETE_S37_TRF1208 1 2 3 4  
S_S37         3 4 1 2 _S37
RS_S37         1 2 1G
.MODEL         _S37 VSWITCH ROFF=4E3 RON=1 VOFF=-10E-3 VON=10E-3
.ENDS  8COMPLETE_S37_TRF1208
*
.SUBCKT 8COMPLETE_S38_TRF1208 1 2 3 4  
S_S38         3 4 1 2 _S38
RS_S38         1 2 1G
.MODEL         _S38 VSWITCH ROFF=4E3 RON=1 VOFF=-10E-3 VON=10E-3
.ENDS  8COMPLETE_S38_TRF1208
*
.SUBCKT 8COMPLETE_S39_TRF1208 1 2 3 4  
S_S39         3 4 1 2 _S39
RS_S39         1 2 1G
.MODEL         _S39 VSWITCH ROFF=4E3 RON=1 VOFF=-10E-3 VON=10E-3
.ENDS  8COMPLETE_S39_TRF1208
*
.SUBCKT 8COMPLETE_S40_TRF1208 1 2 3 4  
S_S40         3 4 1 2 _S40
RS_S40         1 2 1G
.MODEL         _S40 VSWITCH ROFF=1 RON=1E-3 VOFF=0.05 VON=0.1
.ENDS  8COMPLETE_S40_TRF1208
*
.SUBCKT 8COMPLETE_S41_TRF1208 1 2 3 4  
S_S41         3 4 1 2 _S41
RS_S41         1 2 1G
.MODEL         _S41 VSWITCH ROFF=1 RON=1E-3 VOFF=0.05 VON=0.1
.ENDS  8COMPLETE_S41_TRF1208
*
.SUBCKT 8COMPLETE_S42_TRF1208 1 2 3 4  
S_S42         3 4 1 2 _S42
RS_S42         1 2 1G
.MODEL         _S42 VSWITCH ROFF=1 RON=1E-3 VOFF=0.8 VON=1.45
.ENDS  8COMPLETE_S42_TRF1208
*