* source UCC28722
*
*
*****************************************************************************
* (C) Copyright 2015 Texas Instruments Incorporated. All rights reserved.                                            
*****************************************************************************
** This model is designed as an aid for customers of Texas Instruments.                                             
** TI and its licensors and suppliers make no warranties, either expressed                                           
** or implied, with respect to this model, including the warranties of                                                    
** merchantability or fitness for a particular purpose. The model is                                                      
** provided solely on an "as is" basis. The entire risk as to its quality                                                    
** and performance is with the customer.                                                                                         
*****************************************************************************
*
* Released by: WEBENCH Design Center, Texas Instruments Inc.
* Part: UCC28722
* Date: 2/12/2015
* Model Type: Transient 
* Simulator:  PSPICE
* Simulator Version: 16.2
* EVM Order Number: UCC28720EVM-212
* EVM Users Guide: SLUUA92A
* Datasheet: SLUSBL7A –DECEMBER 2013–REVISED JANUARY 2014
* Model Version: Final 1.0
* Release to Web.
****************************************************************************

.SUBCKT UCC28722  CBC VDD DRV CS GND VS


X_S1    EN_WZ 0 N355726 0 TOP_UCC28722_S1 
E_E3         CS_SH 0 CS GND 1
V_CNTLLAW_V40         CNTLLAW_N17078029 0 100m
V_CNTLLAW_V36         CNTLLAW_N17078576 0 1.25
X_CNTLLAW_U37         EN_DLY CNTLLAW_N16796641 INV_BASIC_GEN PARAMS: VDD=1
+  VSS=0 VTHRESH=500E-3
I_CNTLLAW_I5         CNTLLAW_N16778284 0 DC 1.36u  
X_CNTLLAW_U48         WAIT_EX LR CNTLLAW_N16839544 AND2_BASIC_GEN PARAMS: VDD=1
+  VSS=0 VTHRESH=500E-3
X_CNTLLAW_S11    CNTLLAW_N386722 0 CNTLLAW_N387230 N357619 CNTL_LAW_CNTLLAW_S11
+  
I_CNTLLAW_I2         CNTLLAW_N382813 CNTLLAW_N382821 DC 10.4u  
E_CNTLLAW_E1         VCX5 CNTLLAW_N16943929 CNTLLAW_N17127550 0 1
C_CNTLLAW_C17         0 CNTLLAW_N2  1p  TC=0,0 
X_CNTLLAW_U16         CNTLLAW_N373723 CNTLLAW_N374281 BUF_BASIC_GEN PARAMS:
+  VDD=1 VSS=0 VTHRESH=0.5
X_CNTLLAW_U49         CNTLLAW_N16835762 WAIT_EX CNTLLAW_N16837818
+  AND2_BASIC_GEN PARAMS: VDD=1 VSS=0 VTHRESH=500E-3
X_CNTLLAW_U66         0 CNTLLAW_N387230 d_d1 PARAMS:
X_CNTLLAW_F2    CNTLLAW_N375267 CNTLLAW_N385780 N357619 0 CNTL_LAW_CNTLLAW_F2 
V_CNTLLAW_V25         CNTLLAW_HI 0 5
X_CNTLLAW_U70         CNTLLAW_N382142 CNTLLAW_N382180 d_d1 PARAMS:
X_CNTLLAW_U73         CNTLLAW_N16778284 CNTLLAW_N16973141 d_d1 PARAMS:
X_CNTLLAW_U15         CNTLLAW_N17182680 CNTLLAW_N17183597 INV_BASIC_GEN PARAMS:
+  VDD=1 VSS=0 VTHRESH=500E-3
I_CNTLLAW_I3         CNTLLAW_N382180 CNTLLAW_N382142 DC 5u  
X_CNTLLAW_U68         CNTLLAW_N375267 CNTLLAW_N17085861 CNTLLAW_N17085870
+  CNTLLAW_N16830034 COMPHYS_BASIC_GEN PARAMS: VDD=1 VSS=0 VTHRESH=0.5
V_CNTLLAW_V37         CNTLLAW_N17085870 0 150m
R_CNTLLAW_R17         CNTLLAW_N17164768 CNTLLAW_N382180  200k TC=0,0 
X_CNTLLAW_U35         LOWF CNTLLAW_N16796641 CNTLLAW_N16794368 OR2_BASIC_GEN
+  PARAMS: VDD=1 VSS=0 VTHRESH=500E-3
X_CNTLLAW_U52         CNTLLAW_N16830688 CNTLLAW_N16848635 CNTLLAW_N16848625
+  AND2_BASIC_GEN PARAMS: VDD=1 VSS=0 VTHRESH=500E-3
X_CNTLLAW_U72         N357619 CNTLLAW_N17101929 d_d1 PARAMS:
X_CNTLLAW_U50         CNTLLAW_N386722 CNTLLAW_N16841301 CNTLLAW_N16840595
+  AND2_BASIC_GEN PARAMS: VDD=1 VSS=0 VTHRESH=500E-3
X_CNTLLAW_U33         CNTLLAW_N373723 N373719 ZCD_FIRST NO_SMPL NO_SMPL
+  CNTLLAW_HI DFFSBRB_RHPBASIC_GEN PARAMS: VDD=1 VSS=0 VTHRESH=500E-3
X_CNTLLAW_U46         CNTLLAW_N16835426 CNTLLAW_N16837818 CNTLLAW_N16834398
+  OR2_BASIC_GEN PARAMS: VDD=1 VSS=0 VTHRESH=500E-3
X_CNTLLAW_U74         CNTLLAW_N16777603 CNTLLAW_N16777609 d_d1 PARAMS:
X_CNTLLAW_U45         CNTLLAW_N16839544 CNTLLAW_N16840595 CNTLLAW_N16833397
+  OR2_BASIC_GEN PARAMS: VDD=1 VSS=0 VTHRESH=500E-3
X_CNTLLAW_U38         CNTLLAW_N16790650 LOWF CNTLLAW_N16796641
+  CNTLLAW_N16789174 OR3_BASIC_GEN PARAMS: VDD=1 VSS=0 VTHRESH=500E-3
X_CNTLLAW_U63         N362698 CNTLLAW_N16864389 d_d1 PARAMS:
V_CNTLLAW_V39         CNTLLAW_N17113103 0 2.2
V_CNTLLAW_V29         CNTLLAW_N16777603 0 0.75
X_CNTLLAW_U41         CNTLLAW_N16825009 CNTLLAW_N386722 INV_BASIC_GEN PARAMS:
+  VDD=1 VSS=0 VTHRESH=500E-3
X_CNTLLAW_U58         WAIT_EX LOW_VC CNTLLAW_N16848754 AND2_BASIC_GEN PARAMS:
+  VDD=1 VSS=0 VTHRESH=500E-3
X_CNTLLAW_U55         CNTLLAW_N16848722 CNTLLAW_N16848739 CNTLLAW_N16848705
+  OR2_BASIC_GEN PARAMS: VDD=1 VSS=0 VTHRESH=500E-3
R_CNTLLAW_R18         CNTLLAW_N16973141 CNTLLAW_N16777609  125k TC=0,0 
R_CNTLLAW_R16         CNTLLAW_N17101929 CNTLLAW_N382813  135k TC=0,0 
X_CNTLLAW_U14         CNTLLAW_N16848637 CNTLLAW_N16848705 LOW_VC
+  CNTLLAW_N16848724 SRLATCHRHP_BASIC_GEN PARAMS: VDD=1 VSS=0 VTHRESH=0.5
X_CNTLLAW_U34         CNTLLAW_N373723 CNTLLAW_N375117 INV_BASIC_GEN PARAMS:
+  VDD=1 VSS=0 VTHRESH=500E-3
I_CNTLLAW_I4         CNTLLAW_N16777609 CNTLLAW_N16777603 DC 5.24u  
R_CNTLLAW_R12         CNTLLAW_N16780754 CNTLLAW_N375267  100k  
X_CNTLLAW_U44         CNTLLAW_N16830034 CNTLLAW_N16830688 INV_BASIC_GEN PARAMS:
+  VDD=1 VSS=0 VTHRESH=500E-3
X_CNTLLAW_U12         CNTLLAW_N16794368 CNTLLAW_N16790650 CNTLLAW_N16786816
+  N16788299 SRLATCHRHP_BASIC_GEN PARAMS: VDD=1 VSS=0 VTHRESH=0.5
X_CNTLLAW_U54         CNTLLAW_N16848754 CNTLLAW_N16848625 CNTLLAW_N16848637
+  OR2_BASIC_GEN PARAMS: VDD=1 VSS=0 VTHRESH=500E-3
V_CNTLLAW_V28         CNTLLAW_N382142 0 1.3
X_CNTLLAW_U36         ZCD_FIRST CNTLLAW_N16786818 BUF_BASIC_GEN PARAMS: VDD=1
+  VSS=0 VTHRESH=0.5
X_CNTLLAW_D66         CNTLLAW_N2 CNTLLAW_N16789174 d_d1 PARAMS: 
X_CNTLLAW_U71         N357619 CNTLLAW_N17164768 d_d1 PARAMS:
R_CNTLLAW_R5         CNTLLAW_N2 CNTLLAW_N16789174  36.23e3  
X_CNTLLAW_U47         WAIT_EX CNTLLAW_N386722 CNTLLAW_N16835426 NOR2_BASIC_GEN
+  PARAMS: VDD=1 VSS=0 VTHRESH=500E-3
X_CNTLLAW_F3    CNTLLAW_N385780 CNTLLAW_N16778284 CNTLLAW_N387230 0
+  CNTL_LAW_CNTLLAW_F3 
E_CNTLLAW_ABM2         CNTLLAW_N17127550 0 VALUE { {LIMIT((V(CNTLLAW_N16780754)
+  - V(CNTLLAW_N17113103))*2.167, 0,2.925)}  
+ *1   }
X_CNTLLAW_U51         WAIT_EX CNTLLAW_N16841301 INV_BASIC_GEN PARAMS: VDD=1
+  VSS=0 VTHRESH=500E-3
X_CNTLLAW_U53         WAIT_EX CNTLLAW_N16848635 INV_BASIC_GEN PARAMS: VDD=1
+  VSS=0 VTHRESH=500E-3
X_CNTLLAW_U13         CNTLLAW_N16833397 CNTLLAW_N16834398 LR CNTLLAW_N16835762
+  SRLATCHRHP_BASIC_GEN PARAMS: VDD=1 VSS=0 VTHRESH=0.5
V_CNTLLAW_V30         CNTLLAW_N16864389 0 5.5
X_CNTLLAW_S13    CNTLLAW_N375117 0 CNTLLAW_N17017219 CNTLLAW_N375267
+  CNTL_LAW_CNTLLAW_S13 
X_CNTLLAW_U40         LOWF N16801118 CNTLLAW_N16786818 LOW_VC CNTLLAW_N16796641
+  0 DFFSR_RHPBASIC_GEN PARAMS: VDD=1 VSS=0 VTHRESH=500E-3
X_CNTLLAW_U56         WAIT_EX CNTLLAW_N16830688 CNTLLAW_N16848722
+  NOR2_BASIC_GEN PARAMS: VDD=1 VSS=0 VTHRESH=500E-3
V_CNTLLAW_V31         CNTLLAW_N16943929 0 0.975
V_CNTLLAW_V34         CNTLLAW_N17085861 0 2.2
X_CNTLLAW_U30         CNTLLAW_N16786807 N16786795 CNTLLAW_N16786818
+  CNTLLAW_N16786816 CNTLLAW_N16789174 0 DFFSR_RHPBASIC_GEN PARAMS: VDD=1 VSS=0
+  VTHRESH=500E-3
X_CNTLLAW_U32         CNTLLAW_N16790650 N16790648 CNTLLAW_N16786818
+  CNTLLAW_N16790269 CNTLLAW_N17183597 0 DFFSR_RHPBASIC_GEN PARAMS: VDD=1 VSS=0
+  VTHRESH=500E-3
X_CNTLLAW_U31         CNTLLAW_N16790269 N16790267 CNTLLAW_N16786818
+  CNTLLAW_N16786807 CNTLLAW_N16789174 0 DFFSR_RHPBASIC_GEN PARAMS: VDD=1 VSS=0
+  VTHRESH=500E-3
X_CNTLLAW_S12    CNTLLAW_N16786816 0 CNTLLAW_N16780754 0 CNTL_LAW_CNTLLAW_S12 
V_CNTLLAW_V26         CNTLLAW_N376512 0 5
E_CNTLLAW_ABM1         CNTLLAW_N17017219 0 VALUE { {LIMIT((V(N359667) -
+  V(0))*1, 0.4,5)}  
+ *1   }
X_CNTLLAW_U67         CNTLLAW_N375267 CNTLLAW_N17078576 CNTLLAW_N17078029
+  CNTLLAW_N16825009 COMPHYS_BASIC_GEN PARAMS: VDD=1 VSS=0 VTHRESH=0.5
X_CNTLLAW_U9         CNTLLAW_N2 CNTLLAW_N17182680 INV_BASIC_GEN PARAMS: VDD=1
+  VSS=0 VTHRESH=500E-3
V_CNTLLAW_V27         CNTLLAW_N382821 0 3.55
X_CNTLLAW_S10    CNTLLAW_N374281 0 CNTLLAW_N376512 CNTLLAW_N375267
+  CNTL_LAW_CNTLLAW_S10 
X_CNTLLAW_U69         CNTLLAW_N382821 CNTLLAW_N382813 d_d1 PARAMS:
X_CNTLLAW_F1    CNTLLAW_N375267 N357619 0 N362698 CNTL_LAW_CNTLLAW_F1 
X_CNTLLAW_U57         CNTLLAW_N16848724 WAIT_EX CNTLLAW_N16848739
+  AND2_BASIC_GEN PARAMS: VDD=1 VSS=0 VTHRESH=500E-3
R_R4         N355726 V5  2.5k TC=0,0 
X_U_MOD_U39         U_MOD_NUQ_0 N503426 U_MOD_N419611 U_MOD_N418836
+  U_MOD_N417883 0 DFFSR_RHPBASIC_GEN PARAMS: VDD=1 VSS=0 VTHRESH=500E-3
X_U_MOD_U14         MINP WAIT N427200 WAIT_EX SRLATCHRHP_BASIC_GEN PARAMS:
+  VDD=1 VSS=0 VTHRESH=0.5
X_U_MOD_D67         U_MOD_N410886 U_MOD_N410776 d_d1 PARAMS: 
C_U_MOD_C17         0 U_MOD_NXX_111  1p  TC=0,0 
X_U_MOD_U37         EN U_MOD_N407644 INV_BASIC_GEN PARAMS: VDD=1 VSS=0
+  VTHRESH=500E-3
X_U_MOD_U42         WAIT U_MOD_N167586430 INV_BASIC_GEN PARAMS: VDD=1 VSS=0
+  VTHRESH=500E-3
X_U_MOD_U36         U_MOD_DR_Z U_MOD_N410886 INV_BASIC_GEN PARAMS: VDD=1 VSS=0
+  VTHRESH=500E-3
X_U_MOD_U34         N410191 FAULT_LL U_MOD_DR_Z U_MOD_NXX_111 0 U_MOD_N407644
+  DFFSR_RHPBASIC_GEN PARAMS: VDD=1 VSS=0 VTHRESH=500E-3
V_U_MOD_V28         0 U_MOD_N167588091 0.000
X_U_MOD_U35         FAULT_CS N16755621 U_MOD_N415014 U_MOD_N410776
+  U_MOD_N432933 0 DFFSR_RHPBASIC_GEN PARAMS: VDD=1 VSS=0 VTHRESH=500E-3
R_U_MOD_R6         U_MOD_N410776 U_MOD_N410886  72.46e3  
V_U_MOD_V30         U_MOD_N403667 U_MOD_N403691 0.000
X_U_MOD_U56         U_MOD_N167587571 VS d_d1 PARAMS:
X_U_MOD_U_MINP_S9    LR 0 N362584 U_MOD_U_MINP_N524199
+  MINP_Range_Cell_U_MOD_U_MINP_S9 
C_U_MOD_U_MINP_C2         0 U_MOD_U_MINP_N524199  216p  TC=0,0 
X_U_MOD_U_MINP_U46         U_MOD_U_MINP_N534975 U_MOD_U_MINP_N427477 MINP
+  OR2_BASIC_GEN PARAMS: VDD=1 VSS=0 VTHRESH=500E-3
C_U_MOD_U_MINP_C1         0 N362584  24p  TC=0,0 
C_U_MOD_U_MINP_C17         0 U_MOD_U_MINP_N427477  1p  TC=0,0 
X_U_MOD_U_MINP_U57         N362584 U_MOD_U_MINP_N428567 U_MOD_U_MINP_N429279
+  COMP_BASIC_GEN PARAMS: VDD=1 VSS=0 VTHRESH=0.5
X_U_MOD_U_MINP_D66         U_MOD_U_MINP_N429279 U_MOD_U_MINP_N427477 d_d1
+  PARAMS: 
X_U_MOD_U_MINP_U41         U_MOD_U_MINP_N534975 U_MOD_U_MINP_N427436
+  U_MOD_N454762 U_MOD_U_MINP_N533796 U_MOD_U_MINP_N535533 0 DFFSR_RHPBASIC_GEN
+  PARAMS: VDD=1 VSS=0 VTHRESH=500E-3
V_U_MOD_U_MINP_V34         U_MOD_U_MINP_N533796 0 5
X_U_MOD_U_MINP_S8    U_MOD_U_MINP_N427845 0 N362584 0
+  MINP_Range_Cell_U_MOD_U_MINP_S8 
X_U_MOD_U_MINP_U47         U_MOD_U_MINP_N451860 U_MOD_U_MINP_N427477
+  U_MOD_U_MINP_N535533 OR2_BASIC_GEN PARAMS: VDD=1 VSS=0 VTHRESH=500E-3
R_U_MOD_U_MINP_R5         U_MOD_U_MINP_N427477 U_MOD_U_MINP_N429279  72.46e3  
X_U_MOD_U_MINP_U56         U_MOD_U_MINP_N427436 U_MOD_U_MINP_N427477
+  U_MOD_U_MINP_N427477 U_MOD_U_MINP_N427845 OR3_BASIC_GEN PARAMS: VDD=1 VSS=0
+  VTHRESH=500E-3
V_U_MOD_U_MINP_V35         U_MOD_U_MINP_N428567 0 4
X_U_MOD_U_MINP_U58         EN U_MOD_U_MINP_N451860 INV_BASIC_GEN PARAMS: VDD=1
+  VSS=0 VTHRESH=500E-3
X_U_MOD_U52         MINP EN U_MOD_N428698 NAND2_BASIC_GEN PARAMS: VDD=1 VSS=0
+  VTHRESH=500E-3
X_U_MOD_S8    U_MOD_N404829 0 U_MOD_N404861 U_MOD_N404873 Modulator_U_MOD_S8 
I_U_MOD_I3         U_MOD_N403667 0 DC 2e-6Adc  
X_U_MOD_UZD_D66         U_MOD_UZD_N16692418 EN_DLY d_d1 PARAMS: 
X_U_MOD_UZD_U37         U_MOD_UZD_N420735 N408936 U_MOD_UZD_N420044
+  U_MOD_UZD_N408908 U_MOD_UZD_N447332 0 DFFSR_RHPBASIC_GEN PARAMS: VDD=1 VSS=0
+  VTHRESH=500E-3
X_U_MOD_UZD_U14         U_MOD_UZD_N423909 U_MOD_UZD_N424373 U_MOD_N454762
+  N424988 SRLATCHRHP_BASIC_GEN PARAMS: VDD=1 VSS=0 VTHRESH=0.5
X_U_MOD_UZD_U53         U_MOD_UZD_N420660 U_MOD_UZD_N420735 U_MOD_UZD_N420735
+  U_MOD_UZD_N423067 OR3_BASIC_GEN PARAMS: VDD=1 VSS=0 VTHRESH=500E-3
X_U_MOD_UZD_U60         U_MOD_UZD_N419975 U_MOD_UZD_N420044 INV_BASIC_GEN
+  PARAMS: VDD=1 VSS=0 VTHRESH=500E-3
X_U_MOD_UZD_U51         U_MOD_UZD_N426305 U_MOD_UZD_N426523 U_MOD_UZD_N448059
+  AND2_BASIC_GEN PARAMS: VDD=1 VSS=0 VTHRESH=500E-3
X_U_MOD_UZD_U38         U_MOD_UZD_N418016 VS U_MOD_UZD_N409026 COMP_BASIC_GEN
+  PARAMS: VDD=1 VSS=0 VTHRESH=0.5
X_U_MOD_UZD_U4         U_MOD_UZD_N409026 U_MOD_VS_NEG BUF_BASIC_GEN PARAMS:
+  VDD=1 VSS=0 VTHRESH=0.5
X_U_MOD_UZD_U40         U_MOD_DR_Z U_MOD_UZD_CLK_1 BUF_BASIC_GEN PARAMS: VDD=1
+  VSS=0 VTHRESH=0.5
X_U_MOD_UZD_U45         U_MOD_UZD_N409026 U_MOD_UZD_N426305 INV_BASIC_GEN
+  PARAMS: VDD=1 VSS=0 VTHRESH=500E-3
X_U_MOD_UZD_U34         U_MOD_UZD_N423618 N408528 U_MOD_UZD_N430044
+  U_MOD_UZD_HI_5V U_MOD_UZD_N430534 0 DFFSR_RHPBASIC_GEN PARAMS: VDD=1 VSS=0
+  VTHRESH=500E-3
X_U_MOD_UZD_U52         LOWF U_MOD_UZD_N416643 INV_BASIC_GEN PARAMS: VDD=1
+  VSS=0 VTHRESH=500E-3
X_U_MOD_UZD_U26         U_MOD_UZD_N426972 U_MOD_UZD_N426972 U_MOD_UZD_N427344
+  U_MOD_UZD_N424373 OR3_BASIC_GEN PARAMS: VDD=1 VSS=0 VTHRESH=500E-3
X_U_MOD_UZD_U57         EN_DLY U_MOD_UZD_N418641 INV_BASIC_GEN PARAMS: VDD=1
+  VSS=0 VTHRESH=500E-3
X_U_MOD_UZD_U50         U_MOD_UZD_N423909 U_MOD_UZD_N416512 INV_BASIC_GEN
+  PARAMS: VDD=1 VSS=0 VTHRESH=500E-3
X_U_MOD_UZD_U64         EN_DLY U_MOD_UZD_N435687 INV_BASIC_GEN PARAMS: VDD=1
+  VSS=0 VTHRESH=500E-3
X_U_MOD_UZD_U39         U_MOD_DR_Z U_MOD_UZD_N426972 INV_BASIC_GEN PARAMS:
+  VDD=1 VSS=0 VTHRESH=500E-3
V_U_MOD_UZD_V25         U_MOD_UZD_HI_5V 0 5
X_U_MOD_UZD_U7         EN_DLY U_MOD_UZD_N416512 U_MOD_UZD_N419465
+  AND2_BASIC_GEN PARAMS: VDD=1 VSS=0 VTHRESH=500E-3
X_U_MOD_UZD_U12         U_MOD_UZD_N16692418 U_MOD_UZD_N16692574 INV_BASIC_GEN
+  PARAMS: VDD=1 VSS=0 VTHRESH=500E-3
X_U_MOD_UZD_U13         TDM_START U_MOD_UZD_N426972 U_MOD_UZD_N418641
+  U_MOD_UZD_N418495 OR3_BASIC_GEN PARAMS: VDD=1 VSS=0 VTHRESH=500E-3
X_U_MOD_UZD_U27         U_MOD_UZD_N418289 U_MOD_UZD_N430659 BUF_DELAY_BASIC_GEN
+  PARAMS: VDD=1 VSS=0 VTHRESH=0.5 DELAY=10n
V_U_MOD_UZD_V26         U_MOD_UZD_N418016 GND 0.02
X_U_MOD_UZD_U48         U_MOD_UZD_N430659 U_MOD_UZD_N416307 INV_BASIC_GEN
+  PARAMS: VDD=1 VSS=0 VTHRESH=500E-3
X_U_MOD_UZD_U65         EN_DLY U_MOD_UZD_N443567 INV_BASIC_GEN PARAMS: VDD=1
+  VSS=0 VTHRESH=500E-3
X_U_MOD_UZD_U33         ZCD_FIRST N408411 U_MOD_UZD_N409026 U_MOD_UZD_HI_5V
+  U_MOD_UZD_N418495 0 DFFSR_RHPBASIC_GEN PARAMS: VDD=1 VSS=0 VTHRESH=500E-3
R_U_MOD_UZD_R5         U_MOD_UZD_N16692418 EN_DLY  72.46e3  
V_U_MOD_UZD_u_TIMER_V26         U_MOD_UZD_u_TIMER_N00070 0 5
X_U_MOD_UZD_u_TIMER_U32         U_MOD_UZD_N419975 U_MOD_UZD_u_TIMER_N377086
+  U_MOD_UZD_N408908 U_MOD_UZD_u_TIMER_N00070 U_MOD_UZD_u_TIMER_N376887 0
+  DFFSR_RHPBASIC_GEN PARAMS: VDD=1 VSS=0 VTHRESH=500E-3
X_U_MOD_UZD_u_TIMER_S13    U_MOD_UZD_u_TIMER_N377086 0 U_MOD_UZD_N472888 0
+  Timer_Cell_U_MOD_UZD_u_TIMER_S13 
V_U_MOD_UZD_u_TIMER_V27         U_MOD_UZD_u_TIMER_N377594 0 3
C_U_MOD_UZD_u_TIMER_C2         0 U_MOD_UZD_N472888  3.33p  TC=0,0 
X_U_MOD_UZD_u_TIMER_U46         U_MOD_UZD_u_TIMER_N436855
+  U_MOD_UZD_u_TIMER_N435973 U_MOD_UZD_u_TIMER_N376887 OR2_BASIC_GEN PARAMS:
+  VDD=1 VSS=0 VTHRESH=500E-3
X_U_MOD_UZD_u_TIMER_U47         U_MOD_UZD_N472888 U_MOD_UZD_u_TIMER_N377594
+  U_MOD_UZD_u_TIMER_N436855 COMP_BASIC_GEN PARAMS: VDD=1 VSS=0 VTHRESH=0.5
X_U_MOD_UZD_u_TIMER_U42         U_MOD_UZD_N419465 U_MOD_UZD_u_TIMER_N435973
+  INV_BASIC_GEN PARAMS: VDD=1 VSS=0 VTHRESH=500E-3
X_U_MOD_UZD_U10         TDM_START MINP N357479 U_MOD_UZD_N418289 OR3_BASIC_GEN
+  PARAMS: VDD=1 VSS=0 VTHRESH=500E-3
X_U_MOD_UZD_U17         U_MOD_UZD_N409026 U_MOD_UZD_N430044 BUF_DELAY_BASIC_GEN
+  PARAMS: VDD=1 VSS=0 VTHRESH=0.5 DELAY=25n
C_U_MOD_UZD_C17         0 U_MOD_UZD_N16692418  1p  TC=0,0 
X_U_MOD_UZD_U16         U_MOD_UZD_N430659 U_MOD_UZD_N430659 LOWF
+  U_MOD_UZD_N435687 U_MOD_UZD_N430534 OR4_BASIC_GEN PARAMS: VDD=1 VSS=0
+  VTHRESH=500E-3
X_U_MOD_UZD_U63         EN_DLY U_MOD_UZD_N427344 INV_BASIC_GEN PARAMS: VDD=1
+  VSS=0 VTHRESH=500E-3
X_U_MOD_UZD_U9         U_MOD_UZD_N423713 N408655 U_MOD_UZD_N432893
+  U_MOD_UZD_HI_5V U_MOD_UZD_N443772 0 DFFSR_RHPBASIC_GEN PARAMS: VDD=1 VSS=0
+  VTHRESH=500E-3
X_U_MOD_UZD_U28         U_MOD_UZD_N430659 U_MOD_UZD_N430659 U_MOD_UZD_N443567
+  U_MOD_UZD_N443772 OR3_BASIC_GEN PARAMS: VDD=1 VSS=0 VTHRESH=500E-3
X_U_MOD_UZD_U19         U_MOD_UZD_N16692574 U_MOD_UZD_N432893 INV_BASIC_GEN
+  PARAMS: VDD=1 VSS=0 VTHRESH=500E-3
X_U_MOD_UZD_U61         0 U_MOD_UZD_N408908 U_MOD_UZD_N416643 U_MOD_UZD_N420660
+  AND3_BASIC_GEN PARAMS: VDD=1 VSS=0 VTHRESH=500E-3
X_U_MOD_UZD_U59         EN_DLY U_MOD_UZD_N419815 INV_BASIC_GEN PARAMS: VDD=1
+  VSS=0 VTHRESH=500E-3
X_U_MOD_UZD_U15         U_MOD_UZD_N430659 U_MOD_UZD_N430659 U_MOD_UZD_N419815
+  U_MOD_UZD_N447332 OR3_BASIC_GEN PARAMS: VDD=1 VSS=0 VTHRESH=500E-3
C_U_MOD_UZD_UTDM_C1         0 U_MOD_UZD_UTDM_N432243  1.5p  TC=0,0 
X_U_MOD_UZD_UTDM_U41         TDM_START U_MOD_UZD_UTDM_N430977 U_MOD_UZD_N448059
+  U_MOD_UZD_UTDM_HI_5V U_MOD_UZD_UTDM_N430747 0 DFFSR_RHPBASIC_GEN PARAMS: VDD=1
+  VSS=0 VTHRESH=500E-3
X_U_MOD_UZD_UTDM_U40         EN_DLY U_MOD_UZD_UTDM_N431317 INV_BASIC_GEN
+  PARAMS: VDD=1 VSS=0 VTHRESH=500E-3
X_U_MOD_UZD_UTDM_U46         U_MOD_UZD_UTDM_N432126 U_MOD_UZD_UTDM_N431317
+  U_MOD_UZD_UTDM_N430747 OR2_BASIC_GEN PARAMS: VDD=1 VSS=0 VTHRESH=500E-3
I_U_MOD_UZD_UTDM_I4         0 U_MOD_UZD_UTDM_N432243 DC 3.2e-6Adc  
X_U_MOD_UZD_UTDM_U47         U_MOD_UZD_UTDM_N432243 VCX5 U_MOD_UZD_UTDM_N432126
+  COMP_BASIC_GEN PARAMS: VDD=1 VSS=0 VTHRESH=0.5
X_U_MOD_UZD_UTDM_S13    U_MOD_UZD_UTDM_N430977 0 U_MOD_UZD_UTDM_N432243 0
+  TDM_U_MOD_UZD_UTDM_S13 
V_U_MOD_UZD_UTDM_V25         U_MOD_UZD_UTDM_HI_5V 0 5
X_U_MOD_UZD_U6         ZCD_FIRST U_MOD_UZD_N416307 U_MOD_UZD_N408908
+  AND2_BASIC_GEN PARAMS: VDD=1 VSS=0 VTHRESH=500E-3
X_U_MOD_UZD_U18         U_MOD_UZD_N423067 U_MOD_UZD_N423618 U_MOD_UZD_N423713
+  U_MOD_UZD_N423909 OR3_BASIC_GEN PARAMS: VDD=1 VSS=0 VTHRESH=500E-3
X_U_MOD_UZD_U36         U_MOD_UZD_N426523 N408791 U_MOD_UZD_CLK_1
+  U_MOD_UZD_HI_5V TDM_START 0 DFFSR_RHPBASIC_GEN PARAMS: VDD=1 VSS=0
+  VTHRESH=500E-3
I_U_MOD_UZD_I1         0 U_MOD_UZD_N472888 DC 5uAdc  
V_U_MOD_V33         U_MOD_N418836 0 5
X_U_MOD_S7    U_MOD_N405085 0 U_MOD_N404861 U_MOD_N404881 Modulator_U_MOD_S7 
X_U_MOD_U50         U_MOD_VS_NEG U_MOD_NUQ_0 NO_SMPL AND2_BASIC_GEN PARAMS:
+  VDD=1 VSS=0 VTHRESH=500E-3
X_U_MOD_U53         U_MOD_N402869 U_MOD_N404861 U_MOD_N16696572 COMP_BASIC_GEN
+  PARAMS: VDD=1 VSS=0 VTHRESH=0.5
X_U_MOD_U41         WAIT N504189 ZCD_FIRST LOW_VC U_MOD_N428698 0
+  DFFSR_RHPBASIC_GEN PARAMS: VDD=1 VSS=0 VTHRESH=500E-3
V_U_MOD_V27         U_MOD_N404881 0 0.75
V_U_MOD_V29         U_MOD_N435548 U_MOD_N167587571 0.000
X_U_MOD_U51         EN U_MOD_N167586430 U_MOD_N451779 AND2_BASIC_GEN PARAMS:
+  VDD=1 VSS=0 VTHRESH=500E-3
X_U_MOD_U46         U_MOD_N407644 N360021 U_MOD_N417883 OR2_BASIC_GEN PARAMS:
+  VDD=1 VSS=0 VTHRESH=500E-3
R_U_MOD_R18         GND U_MOD_N402869  100k TC=0,0 
X_U_MOD_U38         MINP U_MOD_N415014 INV_BASIC_GEN PARAMS: VDD=1 VSS=0
+  VTHRESH=500E-3
V_U_MOD_V26         U_MOD_N404873 0 2.1
C_U_MOD_C18         0 U_MOD_N410776  1p  TC=0,0 
X_U_MOD_F1    GND U_MOD_N403387 0 U_MOD_N402869 Modulator_U_MOD_F1 
I_U_MOD_I4         0 CS_SH DC 2e-6Adc  
X_U_MOD_U45         U_MOD_N407644 U_MOD_N413593 U_MOD_N432933 OR2_BASIC_GEN
+  PARAMS: VDD=1 VSS=0 VTHRESH=500E-3
X_U_MOD_U55         U_MOD_N167588091 U_MOD_N403667 d_d1 PARAMS:
X_U_MOD_F2    U_MOD_N403387 U_MOD_N435548 0 U_MOD_N403667 Modulator_U_MOD_F2 
X_U_MOD_U40         TDM_START U_MOD_N419611 INV_BASIC_GEN PARAMS: VDD=1 VSS=0
+  VTHRESH=500E-3
X_U_MOD_UPCC_U52         U_MOD_UPCC_N16792247 U_MOD_UPCC_N16792266
+  U_MOD_UPCC_N16794784 AND2_BASIC_GEN PARAMS: VDD=1 VSS=0 VTHRESH=500E-3
E_U_MOD_UPCC_ABM1         U_MOD_UPCC_N16815387 0 VALUE { {LIMIT((V(N359115) -
+  V(GND))*1, 0,7)}    }
X_U_MOD_UPCC_U62         U_MOD_UPCC_N16782718 U_MOD_UPCC_N16784328 one_shot
+  PARAMS:  T=220
X_U_MOD_UPCC_U61         U_MOD_UPCC_N16779081 U_MOD_UPCC_N16778910
+  BUF_DELAY_BASIC_GEN PARAMS: VDD=1 VSS=0 VTHRESH=0.5 DELAY=150n
X_U_MOD_UPCC_U42         U_MOD_UPCC_N16782156 U_MOD_UPCC_N16781361
+  INV_BASIC_GEN PARAMS: VDD=1 VSS=0 VTHRESH=500E-3
X_U_MOD_UPCC_U46         U_MOD_UPCC_N16779081 U_MOD_UPCC_N16778910
+  U_MOD_UPCC_N16778687 OR2_BASIC_GEN PARAMS: VDD=1 VSS=0 VTHRESH=500E-3
R_U_MOD_UPCC_R12         DRV U_MOD_UPCC_N429302  27  
X_U_MOD_UPCC_U44         U_MOD_UPCC_N16793251 U_MOD_UPCC_N16792266
+  INV_BASIC_GEN PARAMS: VDD=1 VSS=0 VTHRESH=500E-3
X_U_MOD_UPCC_U40         EN_DLY U_MOD_UPCC_N16842725 INV_BASIC_GEN PARAMS:
+  VDD=1 VSS=0 VTHRESH=500E-3
X_U_MOD_UPCC_U60         U_MOD_UPCC_N16778910 U_MOD_DR_Z INV_BASIC_GEN PARAMS:
+  VDD=1 VSS=0 VTHRESH=500E-3
X_U_MOD_UPCC_U58         U_MOD_UPCC_N429302 U_MOD_UPCC_N427451 d_d1 PARAMS:
E_U_MOD_UPCC_E1         U_MOD_UPCC_N16868329 GND U_MOD_UPCC_N16815387 0 1
X_U_MOD_UPCC_S15    U_MOD_N451779 0 U_MOD_UPCC_N16798828 0
+  PCC_CELL8_U_MOD_UPCC_S15 
X_U_MOD_UPCC_U50         U_MOD_UPCC_N16790831 U_MOD_UPCC_N16781361
+  U_MOD_UPCC_N16780644 AND2_BASIC_GEN PARAMS: VDD=1 VSS=0 VTHRESH=500E-3
X_U_MOD_UPCC_U56         CS_SH N361526 U_MOD_UPCC_N16790831 COMP_BASIC_GEN
+  PARAMS: VDD=1 VSS=0 VTHRESH=0.5
G_U_MOD_UPCC_ABM2I1         U_MOD_UPCC_N427451 U_MOD_UPCC_N429302 VALUE {
+  IF(V(U_MOD_UPCC_N16778687) - V(0) >0.5, V(U_MOD_UPCC_IDRV),0)    }
X_U_MOD_UPCC_S8    U_MOD_DR_Z 0 DRV GND PCC_CELL8_U_MOD_UPCC_S8 
X_U_MOD_UPCC_U47         U_MOD_UPCC_N16780644 U_MOD_UPCC_N16842725
+  U_MOD_UPCC_N16779550 OR2_BASIC_GEN PARAMS: VDD=1 VSS=0 VTHRESH=500E-3
X_U_MOD_UPCC_U45         EN_DLY U_MOD_UPCC_N16794167 INV_BASIC_GEN PARAMS:
+  VDD=1 VSS=0 VTHRESH=500E-3
V_U_MOD_UPCC_V34         U_MOD_UPCC_N16812630 0 1.5
V_U_MOD_UPCC_V33         U_MOD_UPCC_N16779585 0 5
X_U_MOD_UPCC_U39         U_MOD_UPCC_N16779081 N16779692 U_MOD_N454762
+  U_MOD_UPCC_N16779585 U_MOD_UPCC_N16779550 0 DFFSR_RHPBASIC_GEN PARAMS: VDD=1
+  VSS=0 VTHRESH=500E-3
E_U_MOD_UPCC_E3         U_MOD_UPCC_IDRV GND TABLE { V(N361526, GND) } 
+ ( (195m,19m) (780m, 41m) )
X_U_MOD_UPCC_F2    U_MOD_UPCC_N16868329 U_MOD_UPCC_N427451 N359115 GND
+  PCC_CELL8_U_MOD_UPCC_F2 
X_U_MOD_UPCC_U43         U_MOD_UPCC_N16782156 U_MOD_UPCC_N16782718
+  INV_BASIC_GEN PARAMS: VDD=1 VSS=0 VTHRESH=500E-3
R_U_MOD_UPCC_R18         U_MOD_UPCC_N16798828 V5  500meg TC=0,0 
R_U_MOD_UPCC_R13         GND DRV  20k  
X_U_MOD_UPCC_U13         U_MOD_UPCC_N16794784 U_MOD_UPCC_N16793251 FAULT_OC
+  N16794628 SRLATCHRHP_BASIC_GEN PARAMS: VDD=1 VSS=0 VTHRESH=0.5
X_U_MOD_UPCC_U48         U_MOD_UPCC_N16784328 U_MOD_DR_Z U_MOD_UPCC_N16782156
+  OR2_BASIC_GEN PARAMS: VDD=1 VSS=0 VTHRESH=500E-3
X_U_MOD_UPCC_U57         CS_SH U_MOD_UPCC_N16812630 U_MOD_UPCC_N16792247
+  COMP_BASIC_GEN PARAMS: VDD=1 VSS=0 VTHRESH=0.5
X_U_MOD_UPCC_U49         U_MOD_UPCC_N16784328 U_MOD_UPCC_N16794167
+  U_MOD_UPCC_N16793251 OR2_BASIC_GEN PARAMS: VDD=1 VSS=0 VTHRESH=500E-3
X_U_MOD_D66         U_MOD_N16696572 U_MOD_NXX_111 d_d1 PARAMS: 
X_U_MOD_U54         U_MOD_N403691 CS_SH d_d1 PARAMS:
R_U_MOD_R5         U_MOD_NXX_111 U_MOD_N16696572  72.46e3  
X_U_MOD_U13         ZCD_FIRST U_MOD_N407644 U_MOD_N413593 N413719
+  SRLATCHRHP_BASIC_GEN PARAMS: VDD=1 VSS=0 VTHRESH=0.5
X_U_MOD_U33         U_MOD_N405085 U_MOD_N404829 U_MOD_DR_Z U_MOD_NXX_111
+  U_MOD_N407644 0 DFFSR_RHPBASIC_GEN PARAMS: VDD=1 VSS=0 VTHRESH=500E-3
X_U2         WAIT N01029 INV_BASIC_GEN PARAMS: VDD=1 VSS=0 VTHRESH=500E-3
R_R8         N359115 VDD  0.1 TC=0,0 
V_U_SAMPLER_V29         U_SAMPLER_N260427 0 2
X_U_SAMPLER_U27         U_SAMPLER_N263355 U_SAMPLER_N260427 U_SAMPLER_N262375
+  COMP_BASIC_GEN PARAMS: VDD=1 VSS=0 VTHRESH=0.5
X_U_SAMPLER_D89         U_SAMPLER_N612342 U_SAMPLER_N266966 d_d1 PARAMS: 
X_U_SAMPLER_U18         N360021 U_SAMPLER_ENB U_SAMPLER_N259121 OR2_BASIC_GEN
+  PARAMS: VDD=1 VSS=0 VTHRESH=500E-3
V_U_SAMPLER_V30         U_SAMPLER_N263355 U_SAMPLER_N635836 0.0
V_U_SAMPLER_V43         U_SAMPLER_N5 U_SAMPLER_N259381 0.8
X_U_SAMPLER_S14    U_SAMPLER_N259041 0 U_SAMPLER_ENB 0 Sampler_U_SAMPLER_S14 
V_U_SAMPLER_V39         U_SAMPLER_N259477 0 2.5
X_U_SAMPLER_U26         U_SAMPLER_M0 V4P6 U_SAMPLER_M3 COMP_BASIC_GEN PARAMS:
+  VDD=1 VSS=0 VTHRESH=0.5
X_U_SAMPLER_S13    U_SAMPLER_M1 0 U_SAMPLER_N260033 U_SAMPLER_N259041
+  Sampler_U_SAMPLER_S13 
V_U_SAMPLER_V27         U_SAMPLER_N7 U_SAMPLER_N4 0.16Vdc
X_U_SAMPLER_U12         U_SAMPLER_N262375 U_SAMPLER_N259299 U_SAMPLER_ARMED
+  N261463 SRLATCHRHP_BASIC_GEN PARAMS: VDD=1 VSS=0 VTHRESH=0.5
V_U_SAMPLER_V44         U_SAMPLER_N2 U_SAMPLER_N262269 0.8
X_U_SAMPLER_D84         U_SAMPLER_N262269 U_SAMPLER_N1 d_d1 PARAMS: 
X_U_SAMPLER_D87         U_SAMPLER_N259377 U_SAMPLER_N5 d_d1 PARAMS: 
C_U_SAMPLER_C9         0 U_SAMPLER_M6  200f IC=0 TC=0,0 
G_U_SAMPLER_U_op1_G1         0 U_SAMPLER_N2 U_SAMPLER_U_op1_N16693617 0 1m
V_U_SAMPLER_U_op1_V6         U_SAMPLER_U_op1_N16693863 0 0.14Vdc
X_U_SAMPLER_U_op1_D63         U_SAMPLER_N2 U_SAMPLER_U_op1_N16693585 d_d1
+  PARAMS: 
X_U_SAMPLER_U_op1_D64         U_SAMPLER_U_op1_N16693863 U_SAMPLER_N2 d_d1
+  PARAMS: 
R_U_SAMPLER_U_op1_R1         0 U_SAMPLER_N2  1k TC=0,0 
E_U_SAMPLER_U_op1_E2         U_SAMPLER_U_op1_N16693617 0 U_SAMPLER_N4
+  U_SAMPLER_N1 10000
V_U_SAMPLER_U_op1_V5         U_SAMPLER_U_op1_N16693585 0 4.86Vdc
R_U_SAMPLER_R10         U_SAMPLER_N266966 U_SAMPLER_M4  1.25meg TC=0,0 
R_U_SAMPLER_R6         U_SAMPLER_N2 U_SAMPLER_N1  600k TC=0,0 
X_U_SAMPLER_S4    U_SAMPLER_M1 0 U_SAMPLER_N259989 U_SAMPLER_N6
+  Sampler_U_SAMPLER_S4 
C_U_SAMPLER_C13         0 U_SAMPLER_M2  2000f IC=0 TC=0,0 
X_U_SAMPLER_U24         U_SAMPLER_N5 U_SAMPLER_N7 U_SAMPLER_N259937
+  COMP_BASIC_GEN PARAMS: VDD=1 VSS=0 VTHRESH=0.5
X_U_SAMPLER_U1         EN_DLY U_SAMPLER_ENB INV_BASIC_GEN PARAMS: VDD=1 VSS=0
+  VTHRESH=500E-3
X_U_SAMPLER_S2    TDM_START 0 U_SAMPLER_N3 U_SAMPLER_N5 Sampler_U_SAMPLER_S2 
X_U_SAMPLER_D88         U_SAMPLER_N563003 U_SAMPLER_M4 d_d1 PARAMS: 
V_U_SAMPLER_V26         U_SAMPLER_N4 U_SAMPLER_N261871 0.16Vdc
E_U_SAMPLER_E18         U_SAMPLER_M4 U_SAMPLER_N259477 U_SAMPLER_N16819823 0 1
G_U_SAMPLER_U_op2_G1         0 U_SAMPLER_N5 U_SAMPLER_U_op2_N16693617 0 1m
V_U_SAMPLER_U_op2_V6         U_SAMPLER_U_op2_N16693863 0 0.14Vdc
X_U_SAMPLER_U_op2_D63         U_SAMPLER_N5 U_SAMPLER_U_op2_N16693585 d_d1
+  PARAMS: 
X_U_SAMPLER_U_op2_D64         U_SAMPLER_U_op2_N16693863 U_SAMPLER_N5 d_d1
+  PARAMS: 
R_U_SAMPLER_U_op2_R1         0 U_SAMPLER_N5  1k TC=0,0 
E_U_SAMPLER_U_op2_E2         U_SAMPLER_U_op2_N16693617 0 U_SAMPLER_N4
+  U_SAMPLER_N3 10000
V_U_SAMPLER_U_op2_V5         U_SAMPLER_U_op2_N16693585 0 4.86Vdc
X_U_SAMPLER_U10         U_SAMPLER_ARMED U_SAMPLER_M1 BUF_BASIC_GEN PARAMS:
+  VDD=1 VSS=0 VTHRESH=0.5
X_U_SAMPLER_U23         U_SAMPLER_N6 U_SAMPLER_N5 U_SAMPLER_N259813
+  COMP_BASIC_GEN PARAMS: VDD=1 VSS=0 VTHRESH=0.5
V_U_SAMPLER_V42         U_SAMPLER_N1 U_SAMPLER_N259157 0.8
V_U_SAMPLER_V25         U_SAMPLER_N4 U_SAMPLER_N259989 0.28Vdc
X_U_SAMPLER_D85         U_SAMPLER_N259157 U_SAMPLER_N2 d_d1 PARAMS: 
C_U_SAMPLER_C4         U_SAMPLER_N1 U_SAMPLER_N2  500f  TC=0,0 
C_U_SAMPLER_C10         U_SAMPLER_N259041 0  20p IC=0 TC=0,0 
X_U_SAMPLER_U14         N360021 U_SAMPLER_ENB U_SAMPLER_N261921 OR2_BASIC_GEN
+  PARAMS: VDD=1 VSS=0 VTHRESH=500E-3
R_U_SAMPLER_R13         U_SAMPLER_N260033 N376345  11.7k TC=0,0 
I_U_SAMPLER_I1         0 U_SAMPLER_N263355 DC 1e-5Adc  
X_U_SAMPLER_U22         LOWF U_SAMPLER_N298469 INV_BASIC_GEN PARAMS: VDD=1
+  VSS=0 VTHRESH=500E-3
X_U_SAMPLER_S11    U_SAMPLER_N259121 0 U_SAMPLER_N266966 U_SAMPLER_M5
+  Sampler_U_SAMPLER_S11 
C_U_SAMPLER_C5         U_SAMPLER_N2 U_SAMPLER_N3  1p  TC=0,0 
E_U_SAMPLER_ABM4         U_SAMPLER_M0 0 VALUE { {LIMIT((V(VS_SH) - V(0))*1,
+  3.8,5)}  
+ *1   }
X_U_SAMPLER_S12    U_SAMPLER_N292881 0 U_SAMPLER_N294401 U_SAMPLER_N266966
+  Sampler_U_SAMPLER_S12 
C_U_SAMPLER_C11         U_SAMPLER_N273842 U_SAMPLER_M4  222f IC=0 TC=0,0 
R_U_SAMPLER_R19         U_SAMPLER_M5 U_SAMPLER_N273842  5k TC=0,0 
V_U_SAMPLER_V23         U_SAMPLER_N4 0 1.6Vdc
X_U_SAMPLER_U21         U_SAMPLER_N298469 0 U_SAMPLER_N292881 AND2_BASIC_GEN
+  PARAMS: VDD=1 VSS=0 VTHRESH=500E-3
X_U_SAMPLER_U7         U_SAMPLER_N264183 U_SAMPLER_N259299 U_SAMPLER_N802933
+  N259805 SRLATCHRHP_BASIC_GEN PARAMS: VDD=1 VSS=0 VTHRESH=0.5
C_U_SAMPLER_C7         0 U_SAMPLER_N263355  1p  TC=0,0 
E_U_SAMPLER_ABM1         U_SAMPLER_N0 0 VALUE { {LIMIT((V(VS_SH) - V(0))*1,
+  0.7,5.5)}  
+ *1   }
X_U_SAMPLER_U9         U_SAMPLER_ARMED U_SAMPLER_N259813 U_SAMPLER_N264183
+  AND2_BASIC_GEN PARAMS: VDD=1 VSS=0 VTHRESH=500E-3
X_U_SAMPLER_U5         U_SAMPLER_N259813 U_SAMPLER_N259937 TDM_START
+  U_SAMPLER_N263517 OR3_BASIC_GEN PARAMS: VDD=1 VSS=0 VTHRESH=500E-3
X_U_SAMPLER_D72         U_SAMPLER_N635836 U_SAMPLER_N260427 d_d1 PARAMS: 
X_U_SAMPLER_U13         U_SAMPLER_N259587 U_SAMPLER_N262355 N360021
+  U_SAMPLER_N259299 OR3_BASIC_GEN PARAMS: VDD=1 VSS=0 VTHRESH=500E-3
X_U_SAMPLER_S7    U_SAMPLER_N259269 0 U_SAMPLER_M5 U_SAMPLER_M6
+  Sampler_U_SAMPLER_S7 
X_U_SAMPLER_U6         TDM_START U_SAMPLER_ENB U_SAMPLER_N259587 OR2_BASIC_GEN
+  PARAMS: VDD=1 VSS=0 VTHRESH=500E-3
X_U_SAMPLER_U15         TDM_START U_SAMPLER_M1 U_SAMPLER_N260583 OR2_BASIC_GEN
+  PARAMS: VDD=1 VSS=0 VTHRESH=500E-3
X_U_SAMPLER_S8    TDM_START 0 U_SAMPLER_N1 U_SAMPLER_N2 Sampler_U_SAMPLER_S8 
X_U_SAMPLER_D86         U_SAMPLER_N259381 U_SAMPLER_N3 d_d1 PARAMS: 
X_U_SAMPLER_S15    U_SAMPLER_N262201 0 U_SAMPLER_N259041 U_SAMPLER_M2
+  Sampler_U_SAMPLER_S15 
X_U_SAMPLER_U11         U_SAMPLER_ARMED U_SAMPLER_N262201 INV_BASIC_GEN PARAMS:
+  VDD=1 VSS=0 VTHRESH=500E-3
X_U_SAMPLER_U20         N358871 N263589 U_SAMPLER_N260583 U_SAMPLER_M3
+  U_SAMPLER_ENB 0 DFFSR_RHPBASIC_GEN PARAMS: VDD=1 VSS=0 VTHRESH=500E-3
C_U_SAMPLER_C6         U_SAMPLER_N3 U_SAMPLER_N5  500f  TC=0,0 
X_U_SAMPLER_S3    U_SAMPLER_N262201 0 U_SAMPLER_N261871 U_SAMPLER_N6
+  Sampler_U_SAMPLER_S3 
X_U_SAMPLER_U62         U_SAMPLER_N802933 N360021 one_shot PARAMS:  T=300
X_U_SAMPLER_U19         U_SAMPLER_N259121 U_SAMPLER_N259269 INV_BASIC_GEN
+  PARAMS: VDD=1 VSS=0 VTHRESH=500E-3