*$
* XTR300
*****************************************************************************
* (C) Copyright 2022 Texas Instruments Incorporated. All rights reserved.                                            
*****************************************************************************
** This model is designed as an aid for customers of Texas Instruments.
** TI and its licensors and suppliers make no warranties, either expressed
** or implied, with respect to this model, including the warranties of 
** merchantability or fitness for a particular purpose.  The model is
** provided solely on an "as is" basis.  The entire risk as to its quality
** and performance is with the customer
*****************************************************************************
*
* This model is subject to change without notice. Texas Instruments
* Incorporated is not responsible for updating this model.
*
*****************************************************************************
*
** Released by: Online Design Tools, Texas Instruments Inc.
* Part: XTR300
* Date: 03NOV2022
* Model Type: All IN ONE
* EVM Order Number: N/A 
* EVM Users Guide:  N/A 
* Datasheet: SBOS336C -JUNE 2005-REVISED JUNE 2011
*
* Model Version: Final 1.1
*
*****************************************************************************
*
* Updates:
*
* Final 1.1
* Updated PSpice symbol.
* Updated Unique SUBCKT name.
*
* Final 1.0: 
* Release to Web
*
*****************************************************************************
* Model Usage Notes:
* 1. Model file is updated with latest header.
* 2. The following parameters are modeled: 
* 		OPEN LOOP GAIN AND PHASE VS FREQUENCY
* 		INPUT COMMON MODE REJECTION WITH FREQUENCY
* 		POWER SUPPLY REJECTION WITH FREQUENCY
* 		INPUT IMPEDANCE VS FREQUENCY
* 		INPUT VOLTAGE NOISE VS FREQUENCY
* 		INPUT CURRENT NOISE VS FREQUENCY
* 		OUTPUT VOLTAGE SWING VS OUTPUT CURRENT
* 		SHORT-CIRCUIT OUTPUT CURRENT
* 		QUIESCENT CURRENT VS SUPPLY VOLTAGE
* 		SLEW RATE
* 		LARGE SIGNAL RESPONSE
* 		OVERLOAD RECOVERY TIME
* 		INPUT BIAS CURRENT
* 		INPUT VOLTAGE OFFSET
* 		INPUT COMMON MODE RANGE
* 		OUTPUT CURRENT COMING THROUGH THE SUPPLY RAILS
* 2. EFOT pin specifications are not included in this model
* 3. Set ITL1=280 ITL2=180 ABSTOL=10n to make the model converge in PSPICE 
*    in case of convergence issue
*****************************************************************************
.SUBCKT XTR300  DGND DRV EFCM EFLD EFOT GND IA_IN+ IA_IN- IAOUT IMON M1 M2
+  OD_N RG1 RG2 SET V+ V- VIN
*****************************************************************************
C_U_C4 U_CL__CLAMP U_GND_FLOAT 1F 
C_U_C6 0 U_N03790 1 
C_U_C9 U_N11675 U_GND_FLOAT 10E-12 
C_U_C11 U_V_P1 U_N213578 32.783P 
C_U_C12 U_GND_FLOAT U_VCC_CLP_ACTIVE 10P 
C_U_C13 U_CLAW_CLAMP U_GND_FLOAT 1F 
C_U_C15 V- U_GND_FLOAT 1N 
C_U_C16 U_VEE_CLP_ACTIVE U_GND_FLOAT 10P 
C_U_C17 U_GND_FLOAT U_SC+ 10P 
C_U_C18 V+ U_GND_FLOAT 1N 
C_U_C19 U_SC- U_GND_FLOAT 10P 
C_U_C20 U_GND_FLOAT U_OL+ 10P 
C_U_C21 U_OL- U_GND_FLOAT 10P 
C_U_C22 U_GND_FLOAT U_CL1 1P 
C_U_C23 U_GND_FLOAT U_VCLP 1F 
C_U_CCC U_OVER_CLAMP U_GND_FLOAT 160.134N 
C_U_CDIFF U_IN-_CMRR U_N5761489 3.75P 
C_U_CINNCM U_GND_FLOAT U_IN-_CMRR 2.5P 
C_U_CINPCM U_N5761489 U_GND_FLOAT 2.5P 
C_U_U_R110 U_N4451298 U_OSTG1 0.4F 
C_U1_C6 0 U1_N5891488 1 
C_U1_C12 U1_GND_FLOAT U1_VCC_CLP_ACTIVE 10P 
C_U1_C13 U1_GND_FLOAT U1_N5827094 1 
C_U1_C14 U1_GND_FLOAT U1_N5835188 1 
C_U1_C15 V- U1_GND_FLOAT 1N 
C_U1_C16 U1_VEE_CLP_ACTIVE U1_GND_FLOAT 10P 
C_U1_C18 V+ U1_GND_FLOAT 1N 
C_U1_C19 U1_GND_FLOAT N5431182 31.82P 
C_U1_CDIFF U1_N5752941 U1_N5752949 3.75P 
C_U1_CINNCM U1_GND_FLOAT U1_N5752941 2.5P 
C_U1_CINPCM U1_N5752949 U1_GND_FLOAT 2.5P 
C_U1_U1_C4 U1_U1_CL__CLAMP U1_GND_FLOAT 1F 
C_U1_U1_C9 U1_U1_N11675 U1_GND_FLOAT 10E-12 
C_U1_U1_C12 U1_GND_FLOAT U1_U1_VCC_CLP_ACTIVE 10P 
C_U1_U1_C13 U1_U1_CLAW_CLAMP U1_GND_FLOAT 1F 
C_U1_U1_C16 U1_U1_VEE_CLP_ACTIVE U1_GND_FLOAT 10P 
C_U1_U1_C17 U1_GND_FLOAT U1_U1_SC+ 10P 
C_U1_U1_C19 U1_U1_SC- U1_GND_FLOAT 10P 
C_U1_U1_C20 U1_GND_FLOAT U1_U1_OL+ 10P 
C_U1_U1_C21 U1_U1_OL- U1_GND_FLOAT 10P 
C_U1_U1_C22 U1_GND_FLOAT U1_U1_CL1 10P 
C_U1_U1_C23 U1_GND_FLOAT U1_U1_VCLP 10P 
C_U1_U1_CCC U1_U1_OVER_CLAMP U1_GND_FLOAT 159.134N 
C_U1_U2_C4 U1_U2_CL__CLAMP U1_GND_FLOAT 1F 
C_U1_U2_C9 U1_U2_N11675 U1_GND_FLOAT 10E-12 
C_U1_U2_C12 U1_GND_FLOAT U1_U2_VCC_CLP_ACTIVE 10P 
C_U1_U2_C13 U1_U2_CLAW_CLAMP U1_GND_FLOAT 1F 
C_U1_U2_C16 U1_U2_VEE_CLP_ACTIVE U1_GND_FLOAT 10P 
C_U1_U2_C17 U1_GND_FLOAT U1_U2_SC+ 10P 
C_U1_U2_C19 U1_U2_SC- U1_GND_FLOAT 10P 
C_U1_U2_C20 U1_GND_FLOAT U1_U2_OL+ 10P 
C_U1_U2_C21 U1_U2_OL- U1_GND_FLOAT 10P 
C_U1_U2_C22 U1_GND_FLOAT U1_U2_CL1 10P 
C_U1_U2_C23 U1_GND_FLOAT U1_U2_VCLP 10P 
C_U1_U2_CCC U1_U2_OVER_CLAMP U1_GND_FLOAT 159.134N 
E_U_E_VCVS3 U_OSTG1 U_GND_FLOAT U_CL__CLAMP U_GND_FLOAT 1
E_U_E_VCVS4 U_N57948 U_GND_FLOAT U_N49600 U_GND_FLOAT 1
E_U_E_VCVS4A U_N648965 U_GND_FLOAT U_N51073 U_GND_FLOAT 1
E_U_E_VCVS6 U_N4205961 U_GND_FLOAT V+ U_GND_FLOAT 1
E_U_E_VCVS6A U_N4232387 U_GND_FLOAT V- U_GND_FLOAT 1
E_U_E_VCVS6A3 U_N6340901 U_GND_FLOAT V- U_GND_FLOAT 1
E_U_E_VCVS7 U_N6336814 U_GND_FLOAT V+ U_GND_FLOAT 1
E_U_E_VCVSCM U_N5766797 U_N51073 U_N5766729 U_GND_FLOAT 1
E_U_E28 U_N06522 0 V- 0 1
E_U_E29 U_N03739 0 V+ 0 1
E_U_E34 U_GND_FLOAT 0 U_N03790 0 1
E_U_E35 U_N213578 U_GND_FLOAT U_N161534 U_GND_FLOAT -1
E_U_E36 U_N6302398 U_GND_FLOAT U_IN+_CMRR U_N6308635 0.5
E_U_E38 U_N6308635 U_GND_FLOAT U_IN-_CMRR U_GND_FLOAT -1
E_U1_E_VCVSCM U1_N5756014 U1_N5763154 U1_N5755906 U1_GND_FLOAT 316.2277
E_U1_E28 U1_N5891626 0 V- 0 1
E_U1_E29 U1_N5891482 0 V+ 0 1
E_U1_E34 U1_GND_FLOAT 0 U1_N5891488 0 1
E_U1_E35 U1_N5833465 U1_GND_FLOAT U1_N5827094 U1_GND_FLOAT 1
E_U1_E36 U1_N5835248 U1_GND_FLOAT U1_N5835188 U1_GND_FLOAT 1
E_U1_U1_E_VCVS3 U1_U1_OSTG1 U1_GND_FLOAT U1_U1_CL__CLAMP U1_GND_FLOAT 1
E_U1_U1_E_VCVS4 U1_U1_N57948 U1_GND_FLOAT U1_U1_N49600 U1_GND_FLOAT 1
E_U1_U1_E_VCVS4A U1_U1_N648965 U1_GND_FLOAT U1_U1_N51073 U1_GND_FLOAT 1
E_U1_U1_E_VCVS6 U1_U1_N4205961 U1_GND_FLOAT V+ U1_GND_FLOAT 1
E_U1_U1_E_VCVS6A U1_U1_N4232387 U1_GND_FLOAT V- U1_GND_FLOAT 1
E_U1_U2_E_VCVS3 U1_U2_OSTG1 U1_GND_FLOAT U1_U2_CL__CLAMP U1_GND_FLOAT 1
E_U1_U2_E_VCVS4 U1_U2_N57948 U1_GND_FLOAT U1_U2_N49600 U1_GND_FLOAT 1
E_U1_U2_E_VCVS4A U1_U2_N648965 U1_GND_FLOAT U1_U2_N51073 U1_GND_FLOAT 1
E_U1_U2_E_VCVS6 U1_U2_N4205961 U1_GND_FLOAT V+ U1_GND_FLOAT 1
E_U1_U2_E_VCVS6A U1_U2_N4232387 U1_GND_FLOAT V- U1_GND_FLOAT 1
G_U_G_VCCS5 U_GND_FLOAT U_VSENSE U_OVER_CLAMP U_GND_FLOAT 1E-6
G_U_G_VCCS6 U_GND_FLOAT U_N161534 U_VSENSE U_GND_FLOAT 1E-6
G_U_G_VCCS7 U_N5766729 U_GND_FLOAT U_N6302398 U_GND_FLOAT 501.1872N
G_U_G_VCCS10 U_GND_FLOAT U_V_P1 U_N213578 U_GND_FLOAT -1E-3
G_U_G_VCCS12 U_PSRR_P U_GND_FLOAT V+ U_GND_FLOAT -200N
G_U_G_VCCS13 U_PSRR_N U_GND_FLOAT V- U_GND_FLOAT -200N
G_U_G8 U_GND_FLOAT U_CLAW_CLAMP U_V_P1 U_GND_FLOAT 1E-3
G_U_G9 U_GND_FLOAT U_CL__CLAMP U_CLAW_CLAMP U_GND_FLOAT 1E-3
G_U_GSINKING V- U_GND_FLOAT U_N10869 U_GND_FLOAT 0.001
G_U_GSOURCING V+ U_GND_FLOAT U_N11154 U_GND_FLOAT 0.001
G_U1_G_VCCS7 U1_N5755906 U1_GND_FLOAT U1_IN+_CMRR U1_GND_FLOAT 1N
G_U1_G_VCCS12 U1_PSRR_P U1_GND_FLOAT V+ U1_GND_FLOAT -794.328N
G_U1_G_VCCS13 U1_PSRR_N U1_GND_FLOAT V- U1_GND_FLOAT -794.328N
G_U1_G1 N5431182 U1_GND_FLOAT U1_CLAW_CLAMP U1_GND_FLOAT -1M
G_U1_G2 U1_CLAW_CLAMP U1_GND_FLOAT U1_N5766497 U1_GND_FLOAT -1
G_U1_U1_G_VCCS5 U1_GND_FLOAT U1_U1_VSENSE U1_U1_OVER_CLAMP U1_GND_FLOAT 1E-6
G_U1_U1_G_VCCS6 U1_GND_FLOAT U1_U1_N161534 U1_U1_VSENSE U1_GND_FLOAT 1E-6
G_U1_U1_G_VCCS10 U1_GND_FLOAT U1_U1_V_P1 U1_U1_N161534 U1_GND_FLOAT 1E-6
G_U1_U1_G8 U1_GND_FLOAT U1_U1_CLAW_CLAMP U1_U1_V_P1 U1_GND_FLOAT 1E-3
G_U1_U1_G9 U1_GND_FLOAT U1_U1_CL__CLAMP U1_U1_CLAW_CLAMP U1_GND_FLOAT 1E-3
G_U1_U1_GSINKING V- U1_GND_FLOAT U1_U1_N10869 U1_GND_FLOAT 0.001
G_U1_U1_GSOURCING V+ U1_GND_FLOAT U1_U1_N11154 U1_GND_FLOAT 0.001
G_U1_U2_G_VCCS5 U1_GND_FLOAT U1_U2_VSENSE U1_U2_OVER_CLAMP U1_GND_FLOAT 1E-6
G_U1_U2_G_VCCS6 U1_GND_FLOAT U1_U2_N161534 U1_U2_VSENSE U1_GND_FLOAT 1E-6
G_U1_U2_G_VCCS10 U1_GND_FLOAT U1_U2_V_P1 U1_U2_N161534 U1_GND_FLOAT 1E-6
G_U1_U2_G8 U1_GND_FLOAT U1_U2_CLAW_CLAMP U1_U2_V_P1 U1_GND_FLOAT 1E-3
G_U1_U2_G9 U1_GND_FLOAT U1_U2_CL__CLAMP U1_U2_CLAW_CLAMP U1_GND_FLOAT 1E-3
G_U1_U2_GSINKING V- U1_GND_FLOAT U1_U2_N10869 U1_GND_FLOAT 0.001
G_U1_U2_GSOURCING V+ U1_GND_FLOAT U1_U2_N11154 U1_GND_FLOAT 0.001
G3DB GND N00380 N00380_3DB GND 10M
I_I1 N5436686 OD_N DC 1UADC
I_U_IS1 V+ V- DC 10MADC
I_U_IS2 V+ U_N49600 DC 25NADC
I_U_IS3 U_N51073 V- DC 15NADC
I_U1_U1_IS2 V+ U1_U1_N49600 DC 20.5NADC
I_U1_U1_IS3 U1_U1_N51073 V- DC 19.5NADC
I_U1_U2_IS2 V+ U1_U2_N49600 DC 20.5NADC
I_U1_U2_IS3 U1_U2_N51073 V- DC 19.5NADC
L_U_LCM U_N5766729 U_N5766687 159.134MH 
L_U_LPSR1 U_PSRR_P U_N5770799 316.76MH 
L_U_LPSR2 U_PSRR_N U_N5770675 141.49MH 
L_U1_LCM U1_N5755906 U1_N5755886 39.9727MH 
L_U1_LPSR1 U1_PSRR_P U1_N5755810 5.03228M 
L_U1_LPSR2 U1_PSRR_N U1_N5755616 14.183M 
L3DB N00380_3DB 3DB_INTERNAL 280N 
R_R1 DGND OD_N 2E6 
R_R3 GND EFOT 1G 
R_R4 GND N5492944 1K 
R_R5 GND N5485548 1K 
R_R6 GND N5483646 1K 
R_R7 N5483967 GND 1K 
R_R8 GND N5492345 1K 
R_R9 N5492367 GND 1K 
R_R10 GND N5492393 1K 
R_U_R_VCLP U_GND_FLOAT U_OSTG1 1K 
R_U_R_VIMON U_VIMON U_GND_FLOAT 1K 
R_U_R1 U_VCC_CLP U_GND_FLOAT 100K 
R_U_R2 U_VEE_CLP U_GND_FLOAT 100K 
R_U_R4 U_N356503 U_CL__CLAMP 0.01 
R_U_R5 U_N471680 U_CLAW_CLAMP 0.01 
R_U_R6 U_N5906759 U_OVER_CLAMP 0.01 
R_U_R7 U_N5906723 U_OL+ 1 
R_U_R12 U_N5906743 U_OL- 1 
R_U_R13 U_OSTG1 U_VCLP 1 
R_U_R14 U_N471640 U_VCC_CLP_ACTIVE 1 
R_U_R15 0 U_GND_FLOAT 100E6 
R_U_R16 U_N471660 U_VEE_CLP_ACTIVE 1 
R_U_R18 SET U_IN-_CMRR 1 
R_U_R19 U_N336076 U_SC+ 1 
R_U_R20 VIN U_N5761489 1 
R_U_R21 U_GND_FLOAT U_N11154 10E3 
R_U_R22 U_N57948 U_IN_STAGE_IN+ 10 
R_U_R22A U_N648965 U_IN_STAGE_IN- 10 
R_U_R23 U_N10869 U_GND_FLOAT 10E3 
R_U_R25 U_N342546 U_SC- 1 
R_U_R26 U_N11675 U_VIMON 10 
R_U_R29 U_OVER_CLAMP U_CL1 1 
R_U_R33 U_VCLP U_N5907581 1K 
R_U_R34 U_VCLP U_N5907151 1K 
R_U_R70 U_IN_STAGE_IN+ U_N4208914 1 
R_U_R70A U_N4230147 U_IN_STAGE_IN- 1 
R_U_R70A3 U_N6340881 U_IN_STAGE_IN+ 1 
R_U_R71 U_IN_STAGE_IN- U_N6336684 1 
R_U_RCC1 U_GND_FLOAT U_VCC_CLP_ACTIVE 1K 
R_U_RCC2 U_GND_FLOAT U_VEE_CLP_ACTIVE 1K 
R_U_RCM U_GND_FLOAT U_N5766687 1 
R_U_ROV1 U_GND_FLOAT U_OL+ 1K 
R_U_ROV2 U_GND_FLOAT U_OL- 1K 
R_U_RPSR1 U_GND_FLOAT U_N5770799 1 
R_U_RPSR2 U_GND_FLOAT U_N5770675 1 
R_U_RSC1 U_GND_FLOAT U_SC+ 1K 
R_U_RSC2 U_GND_FLOAT U_SC- 1K 
R_U1_R1 U1_VCC_CLP U1_GND_FLOAT 100K 
R_U1_R2 U1_VEE_CLP U1_GND_FLOAT 100K 
R_U1_R5 U1_N5777596 U1_CLAW_CLAMP 0.01 
R_U1_R14 U1_N5777562 U1_VCC_CLP_ACTIVE 1 
R_U1_R15 0 U1_GND_FLOAT 100E6 
R_U1_R16 U1_N5777576 U1_VEE_CLP_ACTIVE 1 
R_U1_R18 IA_IN- U1_N5752941 1 
R_U1_R20 IA_IN+ U1_N5752949 1 
R_U1_R21 U1_N5827094 V+ 1E6 
R_U1_R22 U1_N5835188 V- 1E6 
R_U1_RCC1 U1_GND_FLOAT U1_VCC_CLP_ACTIVE 1K 
R_U1_RCC2 U1_GND_FLOAT U1_VEE_CLP_ACTIVE 1K 
R_U1_RCM U1_GND_FLOAT U1_N5755886 1 
R_U1_RCM1 U1_GND_FLOAT U1_N5766497 1K 
R_U1_RCM2 U1_GND_FLOAT U1_CLAW_CLAMP 1 
R_U1_RPSR1 U1_GND_FLOAT U1_N5755810 1 
R_U1_RPSR2 U1_GND_FLOAT U1_N5755616 1 
R_U1_U1_R_VCLP U1_GND_FLOAT U1_U1_OSTG1 1K 
R_U1_U1_R_VIMON U1_U1_VIMON U1_GND_FLOAT 1K 
R_U1_U1_R1 U1_U1_VCC_CLP U1_GND_FLOAT 100K 
R_U1_U1_R2 U1_U1_VEE_CLP U1_GND_FLOAT 100K 
R_U1_U1_R4 U1_U1_N356503 U1_U1_CL__CLAMP 0.01 
R_U1_U1_R5 U1_U1_N471680 U1_U1_CLAW_CLAMP 0.01 
R_U1_U1_R6 U1_U1_N403302 U1_U1_OVER_CLAMP 0.01 
R_U1_U1_R7 U1_U1_N403266 U1_U1_OL+ 1 
R_U1_U1_R12 U1_U1_N403286 U1_U1_OL- 1 
R_U1_U1_R13 U1_U1_OSTG1 U1_U1_VCLP 1 
R_U1_U1_R14 U1_U1_N471640 U1_U1_VCC_CLP_ACTIVE 1 
R_U1_U1_R16 U1_U1_N471660 U1_U1_VEE_CLP_ACTIVE 1 
R_U1_U1_R19 U1_U1_N336076 U1_U1_SC+ 1 
R_U1_U1_R21 U1_GND_FLOAT U1_U1_N11154 10E3 
R_U1_U1_R22 U1_U1_N57948 U1_U1_IN_STAGE_IN+ 10 
R_U1_U1_R22A U1_U1_N648965 U1_U1_IN_STAGE_IN- 10 
R_U1_U1_R23 U1_U1_N10869 U1_GND_FLOAT 10E3 
R_U1_U1_R25 U1_U1_N342546 U1_U1_SC- 1 
R_U1_U1_R26 U1_U1_N11675 U1_U1_VIMON 10 
R_U1_U1_R27 U1_U1_CL__CLAMP U1_GND_FLOAT 1K 
R_U1_U1_R28 U1_U1_CLAW_CLAMP U1_GND_FLOAT 1K 
R_U1_U1_R29 U1_U1_OVER_CLAMP U1_U1_CL1 1 
R_U1_U1_R33 U1_U1_VCLP U1_U1_N5809273 1K 
R_U1_U1_R34 U1_U1_VCLP U1_U1_N5813826 1K 
R_U1_U1_R70 U1_U1_IN_STAGE_IN+ U1_U1_N4208914 1 
R_U1_U1_R70A U1_U1_N4230147 U1_U1_IN_STAGE_IN- 1 
R_U1_U1_R71 U1_N5776299 U1_U1_N49600 1K 
R_U1_U1_R72 RG1 U1_U1_N51073 1K 
R_U1_U1_RCC1 U1_GND_FLOAT U1_U1_VCC_CLP_ACTIVE 1K 
R_U1_U1_RCC2 U1_GND_FLOAT U1_U1_VEE_CLP_ACTIVE 1K 
R_U1_U1_ROCLMP U1_GND_FLOAT U1_U1_CL1 1K 
R_U1_U1_ROV1 U1_GND_FLOAT U1_U1_OL+ 1K 
R_U1_U1_ROV2 U1_GND_FLOAT U1_U1_OL- 1K 
R_U1_U1_RSC1 U1_GND_FLOAT U1_U1_SC+ 1K 
R_U1_U1_RSC2 U1_GND_FLOAT U1_U1_SC- 1K 
R_U1_U2_R_VCLP U1_GND_FLOAT U1_U2_OSTG1 1K 
R_U1_U2_R_VIMON U1_U2_VIMON U1_GND_FLOAT 1K 
R_U1_U2_R1 U1_U2_VCC_CLP U1_GND_FLOAT 100K 
R_U1_U2_R2 U1_U2_VEE_CLP U1_GND_FLOAT 100K 
R_U1_U2_R4 U1_U2_N356503 U1_U2_CL__CLAMP 0.01 
R_U1_U2_R5 U1_U2_N471680 U1_U2_CLAW_CLAMP 0.01 
R_U1_U2_R6 U1_U2_N403302 U1_U2_OVER_CLAMP 0.01 
R_U1_U2_R7 U1_U2_N403266 U1_U2_OL+ 1 
R_U1_U2_R12 U1_U2_N403286 U1_U2_OL- 1 
R_U1_U2_R13 U1_U2_OSTG1 U1_U2_VCLP 1 
R_U1_U2_R14 U1_U2_N471640 U1_U2_VCC_CLP_ACTIVE 1 
R_U1_U2_R16 U1_U2_N471660 U1_U2_VEE_CLP_ACTIVE 1 
R_U1_U2_R19 U1_U2_N336076 U1_U2_SC+ 1 
R_U1_U2_R21 U1_GND_FLOAT U1_U2_N11154 10E3 
R_U1_U2_R22 U1_U2_N57948 U1_U2_IN_STAGE_IN+ 10 
R_U1_U2_R22A U1_U2_N648965 U1_U2_IN_STAGE_IN- 10 
R_U1_U2_R23 U1_U2_N10869 U1_GND_FLOAT 10E3 
R_U1_U2_R25 U1_U2_N342546 U1_U2_SC- 1 
R_U1_U2_R26 U1_U2_N11675 U1_U2_VIMON 10 
R_U1_U2_R27 U1_U2_CL__CLAMP U1_GND_FLOAT 1K 
R_U1_U2_R28 U1_U2_CLAW_CLAMP U1_GND_FLOAT 1K 
R_U1_U2_R29 U1_U2_OVER_CLAMP U1_U2_CL1 1 
R_U1_U2_R33 U1_U2_VCLP U1_U2_N5809273 1K 
R_U1_U2_R34 U1_U2_VCLP U1_U2_N5813826 1K 
R_U1_U2_R70 U1_U2_IN_STAGE_IN+ U1_U2_N4208914 1 
R_U1_U2_R70A U1_U2_N4230147 U1_U2_IN_STAGE_IN- 1 
R_U1_U2_R71 U1_N5763154 U1_U2_N49600 1K 
R_U1_U2_R72 RG2 U1_U2_N51073 1K 
R_U1_U2_RCC1 U1_GND_FLOAT U1_U2_VCC_CLP_ACTIVE 1K 
R_U1_U2_RCC2 U1_GND_FLOAT U1_U2_VEE_CLP_ACTIVE 1K 
R_U1_U2_ROCLMP U1_GND_FLOAT U1_U2_CL1 1K 
R_U1_U2_ROV1 U1_GND_FLOAT U1_U2_OL+ 1K 
R_U1_U2_ROV2 U1_GND_FLOAT U1_U2_OL- 1K 
R_U1_U2_RSC1 U1_GND_FLOAT U1_U2_SC+ 1K 
R_U1_U2_RSC2 U1_GND_FLOAT U1_U2_SC- 1K 
RRDB 3DB_INTERNAL GND 1 
V_U_V5 U_V_S13 U_GND_FLOAT 20VDC
V_U_V6 U_GND_FLOAT U_V_S14 20VDC
V_U_V7 V+ U_N501192 1.3VDC
V_U_V8 U_N507738 V- 1.28VDC
V_U_V9 U_N4205961 U_N4206697 3VDC
V_U_V9A U_N4230891 U_N4232387 3VDC
V_U_V9A3 U_N6340887 U_N6340901 3VDC
V_U_V10 U_N6336814 U_N6336668 3VDC
V_U_VOS U_IN+_CMRR U_N5761489 408UVDC
V_U1_U1_V5 U1_U1_V_S13 U1_GND_FLOAT 20VDC
V_U1_U1_V6 U1_GND_FLOAT U1_U1_V_S14 20VDC
V_U1_U1_V7 V+ U1_U1_VCC_CLP 3V
V_U1_U1_V8 U1_U1_VEE_CLP V- 3V
V_U1_U1_V9 U1_U1_N4205961 U1_U1_N4206697 3VDC
V_U1_U1_V9A U1_U1_N4230891 U1_U1_N4232387 3VDC
V_U1_U1_VOR_2 U1_U1_IN+_U22 U1_U1_N5809273 10VDC
V_U1_U1_VOR_3 U1_U1_N5813826 U1_U1_IN+_U23 10VDC
V_U1_U2_V5 U1_U2_V_S13 U1_GND_FLOAT 20VDC
V_U1_U2_V6 U1_GND_FLOAT U1_U2_V_S14 20VDC
V_U1_U2_V7 V+ U1_U2_VCC_CLP 3V
V_U1_U2_V8 U1_U2_VEE_CLP V- 3V
V_U1_U2_V9 U1_U2_N4205961 U1_U2_N4206697 3VDC
V_U1_U2_V9A U1_U2_N4230891 U1_U2_N4232387 3VDC
V_U1_U2_VOR_2 U1_U2_IN+_U22 U1_U2_N5809273 10VDC
V_U1_U2_VOR_3 U1_U2_N5813826 U1_U2_IN+_U23 10VDC
V_U1_V1 U1_N5766223 U1_GND_FLOAT 1
V_U1_V2 U1_N5776299 U1_IN+_CMRR 500U
V_U1_V7 U1_N5833465 U1_VCC_CLP 3V
V_U1_V8 U1_VEE_CLP U1_N5835248 3V
V_V1 N5436686 DGND 5VDC
V_V2 N5479773 GND -17VDC
V_V3 N5480030 GND 17VDC
V_V4 N5481224 GND -17VDC
V_V5 N5481244 GND 17VDC
X_F1 N00167 N00171 GND N00380_3DB SCHEMATIC4_F1_XTR300
X_H1 N5508231 N00167 IOK GND SCHEMATIC4_H1_XTR300
X_S1 I GND SET N00380 SCHEMATIC4_S1_XTR300
X_S2 V_E32_E20 GND IMON N00380 SCHEMATIC4_S2_XTR300
X_S3 V GND N5431182 SET SCHEMATIC4_S3_XTR300
X_S4 I_E32_E20 GND N5431182 IAOUT SCHEMATIC4_S4_XTR300
X_S5 OD_N GND N00171 DRV SCHEMATIC4_S5_XTR300
X_S6 N5485548 GND EFCM GND SCHEMATIC4_S6_XTR300
X_S7 N5492944 GND EFLD GND SCHEMATIC4_S7_XTR300
X_U_H1 U_N4451298 N5508231 U_VIMON U_GND_FLOAT OPA_SCH_U_H1_XTR300
X_U_S1 U_GND_FLOAT U_SC+ U_N336076 U_N356503 OPA_SCH_U_S1_XTR300
X_U_S2 U_SC- U_GND_FLOAT U_N356503 U_N342546 OPA_SCH_U_S2_XTR300
X_U_S3 U_GND_FLOAT U_OL+ U_N5906723 U_N5906759 OPA_SCH_U_S3_XTR300
X_U_S4 U_OL- U_GND_FLOAT U_N5906759 U_N5906743 OPA_SCH_U_S4_XTR300
X_U_S5 U_GND_FLOAT U_VCC_CLP_ACTIVE U_N471640 U_N471680 OPA_SCH_U_S5_XTR300
X_U_S6 U_VEE_CLP_ACTIVE U_GND_FLOAT U_N471680 U_N471660 OPA_SCH_U_S6_XTR300
X_U_S7 U_N11675 U_GND_FLOAT U_VIMON U_N10869 OPA_SCH_U_S7_XTR300
X_U_S8 U_N11675 U_GND_FLOAT U_VIMON U_N11154 OPA_SCH_U_S8_XTR300
X_U_S9 U_GND_FLOAT U_CL1 U_OVER_CLAMP U_V_S14 OPA_SCH_U_S9_XTR300
X_U_S10 U_CL1 U_GND_FLOAT U_V_S13 U_OVER_CLAMP OPA_SCH_U_S10_XTR300
X_U_U_R101 U_N03739 U_N03790 R_NOISELESS_XTR300 PARAMS: ROHMS=1E6
X_U_U_R102 U_N03790 U_N06522 R_NOISELESS_XTR300 PARAMS: ROHMS=1E6
X_U_U_R103 U_IN_STAGE_OUT U_GND_FLOAT R_NOISELESS_XTR300 PARAMS: ROHMS=1E6
X_U_U_R104 U_OVER_CLAMP U_GND_FLOAT R_NOISELESS_XTR300 PARAMS: ROHMS=1E6
X_U_U_R105 U_VSENSE U_GND_FLOAT R_NOISELESS_XTR300 PARAMS: ROHMS=1E6
X_U_U_R106 U_N161534 U_GND_FLOAT R_NOISELESS_XTR300 PARAMS: ROHMS=1E6
X_U_U_R107 U_V_P1 U_GND_FLOAT R_NOISELESS_XTR300 PARAMS: ROHMS=1E3
X_U_U_R108 U_CLAW_CLAMP U_GND_FLOAT R_NOISELESS_XTR300 PARAMS: ROHMS=1E3
X_U_U_R109 U_CL__CLAMP U_GND_FLOAT R_NOISELESS_XTR300 PARAMS: ROHMS=1E3
X_U_U_R110 U_N4451298 U_OSTG1 R_NOISELESS_XTR300 PARAMS: ROHMS=112.5
X_U_U_RINN U_GND_FLOAT U_IN-_CMRR R_NOISELESS_XTR300 PARAMS: ROHMS=2E8
X_U_U_RINP U_N5761489 U_GND_FLOAT R_NOISELESS_XTR300 PARAMS: ROHMS=2E8
X_U_U_RINP1 U_IN-_CMRR U_N5761489 R_NOISELESS_XTR300 PARAMS: ROHMS=1.333E8
X_U_U1 U_IN+_U23 U_VSENSE U_N5906743 U_GND_FLOAT VCVS_LIMIT_XTR300 PARAMS: GAIN=100 VPOS=6000 VNEG=-6000
X_U_U2 U_N4208914 U_N4206697 DIODE_IDEAL_XTR300
X_U_U2A U_N4230891 U_N4230147 DIODE_IDEAL_XTR300
X_U_U2A3 U_N6340887 U_N6340881 DIODE_IDEAL_XTR300
X_U_U3 U_IN+_U22 U_VSENSE U_N5906723 U_GND_FLOAT VCVS_LIMIT_XTR300 PARAMS: GAIN=100 VPOS=6000 VNEG=-6000
X_U_U4 U_GND_FLOAT U_IN_STAGE_OUT U_OVER_CLAMP U_GND_FLOAT VCCS_LIMIT_XTR300 PARAMS: GAIN=0.1M IPOS=160.134M
+ INEG=-160.134M
X_U_U5 U_N6336684 U_N6336668 DIODE_IDEAL_XTR300
X_U_U19 U_VCC_CLP N5508231 U_N471640 U_GND_FLOAT VCVS_LIMIT_XTR300 PARAMS: GAIN=100 VPOS=6000 VNEG=-6000
X_U_U20 U_VEE_CLP N5508231 U_N471660 U_GND_FLOAT VCVS_LIMIT_XTR300 PARAMS: GAIN=100 VPOS=6000 VNEG=-6000
X_U_U21 U_N318039 U_VIMON U_N342546 U_GND_FLOAT VCVS_LIMIT_XTR300 PARAMS: GAIN=100 VPOS=6000 VNEG=-6000
X_U_U22 U_N317215 U_VIMON U_N336076 U_GND_FLOAT VCVS_LIMIT_XTR300 PARAMS: GAIN=100 VPOS=6000 VNEG=-6000
X_U_U23 U_VIMON U_GND_FLOAT U_N501192 U_VCC_CLP VCVS_LIMIT_XTR300 PARAMS: GAIN=0.02 VPOS=2 VNEG=-2
X_U_U24 U_GND_FLOAT U_VIMON U_VEE_CLP U_N507738 VCVS_LIMIT_XTR300 PARAMS: GAIN=0.009 VPOS=2 VNEG=-2
X_U_U25 U_PSRR_P U_PSRR_N U_IN-_CMRR U_N5766797 VCVS_LIMIT_XTR300 PARAMS: GAIN=-1 VPOS=2 VNEG=-2
X_U_U26 U_IN_STAGE_IN+ U_IN_STAGE_IN- U_IN_STAGE_OUT U_GND_FLOAT VCCS_LIMIT_XTR300 PARAMS: GAIN=-19.9526M IPOS=.5
+ INEG=-.5
X_U_U27 U_IN+_U22 U_N5907581 V I E20 E32 VTH_ORT_XTR300
X_U_U28 U_N5907151 U_IN+_U23 V I E20 E32 VTH_ORT_XTR300
X_U_U29 U_IN+_CMRR U_N49600 VNSE_OPA_XTR300
X_U_U30 U_N51073 U_N49600 FEMT_OPA_XTR300
X_U_U31 U_N317215 U_GND_FLOAT V I E20 E32 ICL_OPA_XTR300
X_U_U32 U_GND_FLOAT U_N318039 V I E20 E32 ICL_OPA_XTR300
X_U1_F1 U1_N5760679 RG1 U1_N5766223 U1_N5766497 IA_SCH_U1_F1_XTR300
X_U1_S5 U1_GND_FLOAT U1_VCC_CLP_ACTIVE U1_N5777562 U1_N5777596 IA_SCH_U1_S5_XTR300
X_U1_S6 U1_VEE_CLP_ACTIVE U1_GND_FLOAT U1_N5777596 U1_N5777576 IA_SCH_U1_S6_XTR300
X_U1_U_R101 U1_N5891482 U1_N5891488 R_NOISELESS_XTR300 PARAMS: ROHMS=1E6
X_U1_U_R102 U1_N5891488 U1_N5891626 R_NOISELESS_XTR300 PARAMS: ROHMS=1E6
X_U1_U_RINN U1_GND_FLOAT U1_N5752941 R_NOISELESS_XTR300 PARAMS: ROHMS=200K
X_U1_U_RINP U1_N5752949 U1_GND_FLOAT R_NOISELESS_XTR300 PARAMS: ROHMS=200K
X_U1_U_RINP1 U1_N5752941 U1_N5752949 R_NOISELESS_XTR300 PARAMS: ROHMS=133.33K
X_U1_U1_H1 U1_U1_N4451298 U1_N5760679 U1_U1_VIMON U1_GND_FLOAT SCHEMATIC1_U1_U1_H1_XTR300
X_U1_U1_S1 U1_GND_FLOAT U1_U1_SC+ U1_U1_N336076 U1_U1_N356503 SCHEMATIC1_U1_U1_S1_XTR300
X_U1_U1_S2 U1_U1_SC- U1_GND_FLOAT U1_U1_N356503 U1_U1_N342546 SCHEMATIC1_U1_U1_S2_XTR300
X_U1_U1_S3 U1_GND_FLOAT U1_U1_OL+ U1_U1_N403266 U1_U1_N403302 SCHEMATIC1_U1_U1_S3_XTR300
X_U1_U1_S4 U1_U1_OL- U1_GND_FLOAT U1_U1_N403302 U1_U1_N403286 SCHEMATIC1_U1_U1_S4_XTR300
X_U1_U1_S5 U1_GND_FLOAT U1_U1_VCC_CLP_ACTIVE U1_U1_N471640 U1_U1_N471680 SCHEMATIC1_U1_U1_S5_XTR300
X_U1_U1_S6 U1_U1_VEE_CLP_ACTIVE U1_GND_FLOAT U1_U1_N471680 U1_U1_N471660 SCHEMATIC1_U1_U1_S6_XTR300
X_U1_U1_S7 U1_U1_N11675 U1_GND_FLOAT U1_U1_VIMON U1_U1_N10869 SCHEMATIC1_U1_U1_S7_XTR300
X_U1_U1_S8 U1_U1_N11675 U1_GND_FLOAT U1_U1_VIMON U1_U1_N11154 SCHEMATIC1_U1_U1_S8_XTR300
X_U1_U1_S9 U1_GND_FLOAT U1_U1_CL1 U1_U1_OVER_CLAMP U1_U1_V_S14 SCHEMATIC1_U1_U1_S9_XTR300
X_U1_U1_S10 U1_U1_CL1 U1_GND_FLOAT U1_U1_V_S13 U1_U1_OVER_CLAMP SCHEMATIC1_U1_U1_S10_XTR300
X_U1_U1_U_R103 U1_U1_IN_STAGE_OUT U1_GND_FLOAT R_NOISELESS_XTR300 PARAMS: ROHMS=1E6
X_U1_U1_U_R104 U1_U1_OVER_CLAMP U1_GND_FLOAT R_NOISELESS_XTR300 PARAMS: ROHMS=1E6
X_U1_U1_U_R105 U1_U1_VSENSE U1_GND_FLOAT R_NOISELESS_XTR300 PARAMS: ROHMS=1E6
X_U1_U1_U_R106 U1_U1_N161534 U1_GND_FLOAT R_NOISELESS_XTR300 PARAMS: ROHMS=1E6
X_U1_U1_U_R107 U1_U1_V_P1 U1_GND_FLOAT R_NOISELESS_XTR300 PARAMS: ROHMS=1E6
X_U1_U1_U_R108 U1_U1_N4451298 U1_U1_OSTG1 R_NOISELESS_XTR300 PARAMS: ROHMS=10
X_U1_U1_U1 U1_U1_IN+_U23 U1_U1_VSENSE U1_U1_N403286 U1_GND_FLOAT VCVS_LIMIT_XTR300 PARAMS: GAIN=100 VPOS=6000 VNEG=-6000
X_U1_U1_U2 U1_U1_N4208914 U1_U1_N4206697 DIODE_IDEAL_XTR300
X_U1_U1_U2A U1_U1_N4230891 U1_U1_N4230147 DIODE_IDEAL_XTR300
X_U1_U1_U3 U1_U1_IN+_U22 U1_U1_VSENSE U1_U1_N403266 U1_GND_FLOAT VCVS_LIMIT_XTR300 PARAMS: GAIN=100 VPOS=6000 VNEG=-6000
X_U1_U1_U4 U1_GND_FLOAT U1_U1_IN_STAGE_OUT U1_U1_OVER_CLAMP U1_GND_FLOAT VCCS_LIMIT_XTR300 PARAMS: GAIN=1U IPOS=159.134M
+ INEG=-159.134M
X_U1_U1_U19 U1_U1_VCC_CLP U1_N5760679 U1_U1_N471640 U1_GND_FLOAT VCVS_LIMIT_XTR300 PARAMS: GAIN=100 VPOS=6000 VNEG=-6000
X_U1_U1_U20 U1_U1_VEE_CLP U1_N5760679 U1_U1_N471660 U1_GND_FLOAT VCVS_LIMIT_XTR300 PARAMS: GAIN=100 VPOS=6000 VNEG=-6000
X_U1_U1_U21 U1_U1_N318039 U1_U1_VIMON U1_U1_N342546 U1_GND_FLOAT VCVS_LIMIT_XTR300 PARAMS: GAIN=100 VPOS=6000 VNEG=-6000
X_U1_U1_U22 U1_U1_N317215 U1_U1_VIMON U1_U1_N336076 U1_GND_FLOAT VCVS_LIMIT_XTR300 PARAMS: GAIN=100 VPOS=6000 VNEG=-6000
X_U1_U1_U26 U1_U1_IN_STAGE_IN+ U1_U1_IN_STAGE_IN- U1_U1_IN_STAGE_OUT U1_GND_FLOAT VCCS_LIMIT_XTR300 PARAMS: GAIN=-10
+ IPOS=.5 INEG=-.5
X_U1_U1_U27 U1_U1_N317215 U1_GND_FLOAT V I E20 E32 CURRENT_LIMIT_IA_XTR300
X_U1_U1_U28 U1_GND_FLOAT U1_U1_N318039 V I E20 E32 CURRENT_LIMIT_IA_XTR300
X_U1_U2_H1 U1_U2_N4451298 RG2 U1_U2_VIMON U1_GND_FLOAT SCHEMATIC1_U1_U2_H1_XTR300
X_U1_U2_S1 U1_GND_FLOAT U1_U2_SC+ U1_U2_N336076 U1_U2_N356503 SCHEMATIC1_U1_U2_S1_XTR300
X_U1_U2_S2 U1_U2_SC- U1_GND_FLOAT U1_U2_N356503 U1_U2_N342546 SCHEMATIC1_U1_U2_S2_XTR300
X_U1_U2_S3 U1_GND_FLOAT U1_U2_OL+ U1_U2_N403266 U1_U2_N403302 SCHEMATIC1_U1_U2_S3_XTR300
X_U1_U2_S4 U1_U2_OL- U1_GND_FLOAT U1_U2_N403302 U1_U2_N403286 SCHEMATIC1_U1_U2_S4_XTR300
X_U1_U2_S5 U1_GND_FLOAT U1_U2_VCC_CLP_ACTIVE U1_U2_N471640 U1_U2_N471680 SCHEMATIC1_U1_U2_S5_XTR300
X_U1_U2_S6 U1_U2_VEE_CLP_ACTIVE U1_GND_FLOAT U1_U2_N471680 U1_U2_N471660 SCHEMATIC1_U1_U2_S6_XTR300
X_U1_U2_S7 U1_U2_N11675 U1_GND_FLOAT U1_U2_VIMON U1_U2_N10869 SCHEMATIC1_U1_U2_S7_XTR300
X_U1_U2_S8 U1_U2_N11675 U1_GND_FLOAT U1_U2_VIMON U1_U2_N11154 SCHEMATIC1_U1_U2_S8_XTR300
X_U1_U2_S9 U1_GND_FLOAT U1_U2_CL1 U1_U2_OVER_CLAMP U1_U2_V_S14 SCHEMATIC1_U1_U2_S9_XTR300
X_U1_U2_S10 U1_U2_CL1 U1_GND_FLOAT U1_U2_V_S13 U1_U2_OVER_CLAMP SCHEMATIC1_U1_U2_S10_XTR300
X_U1_U2_U_R103 U1_U2_IN_STAGE_OUT U1_GND_FLOAT R_NOISELESS_XTR300 PARAMS: ROHMS=1E6
X_U1_U2_U_R104 U1_U2_OVER_CLAMP U1_GND_FLOAT R_NOISELESS_XTR300 PARAMS: ROHMS=1E6
X_U1_U2_U_R105 U1_U2_VSENSE U1_GND_FLOAT R_NOISELESS_XTR300 PARAMS: ROHMS=1E6
X_U1_U2_U_R106 U1_U2_N161534 U1_GND_FLOAT R_NOISELESS_XTR300 PARAMS: ROHMS=1E6
X_U1_U2_U_R107 U1_U2_V_P1 U1_GND_FLOAT R_NOISELESS_XTR300 PARAMS: ROHMS=1E6
X_U1_U2_U_R108 U1_U2_N4451298 U1_U2_OSTG1 R_NOISELESS_XTR300 PARAMS: ROHMS=10
X_U1_U2_U1 U1_U2_IN+_U23 U1_U2_VSENSE U1_U2_N403286 U1_GND_FLOAT VCVS_LIMIT_XTR300 PARAMS: GAIN=100 VPOS=6000 VNEG=-6000
X_U1_U2_U2 U1_U2_N4208914 U1_U2_N4206697 DIODE_IDEAL_XTR300
X_U1_U2_U2A U1_U2_N4230891 U1_U2_N4230147 DIODE_IDEAL_XTR300
X_U1_U2_U3 U1_U2_IN+_U22 U1_U2_VSENSE U1_U2_N403266 U1_GND_FLOAT VCVS_LIMIT_XTR300 PARAMS: GAIN=100 VPOS=6000 VNEG=-6000
X_U1_U2_U4 U1_GND_FLOAT U1_U2_IN_STAGE_OUT U1_U2_OVER_CLAMP U1_GND_FLOAT VCCS_LIMIT_XTR300 PARAMS: GAIN=1U IPOS=159.134M
+ INEG=-159.134M
X_U1_U2_U19 U1_U2_VCC_CLP RG2 U1_U2_N471640 U1_GND_FLOAT VCVS_LIMIT_XTR300 PARAMS: GAIN=100 VPOS=6000 VNEG=-6000
X_U1_U2_U20 U1_U2_VEE_CLP RG2 U1_U2_N471660 U1_GND_FLOAT VCVS_LIMIT_XTR300 PARAMS: GAIN=100 VPOS=6000 VNEG=-6000
X_U1_U2_U21 U1_U2_N318039 U1_U2_VIMON U1_U2_N342546 U1_GND_FLOAT VCVS_LIMIT_XTR300 PARAMS: GAIN=100 VPOS=6000 VNEG=-6000
X_U1_U2_U22 U1_U2_N317215 U1_U2_VIMON U1_U2_N336076 U1_GND_FLOAT VCVS_LIMIT_XTR300 PARAMS: GAIN=100 VPOS=6000 VNEG=-6000
X_U1_U2_U26 U1_U2_IN_STAGE_IN+ U1_U2_IN_STAGE_IN- U1_U2_IN_STAGE_OUT U1_GND_FLOAT VCCS_LIMIT_XTR300 PARAMS: GAIN=-10
+ IPOS=.5 INEG=-.5
X_U1_U2_U27 U1_U2_N317215 U1_GND_FLOAT V I E20 E32 CURRENT_LIMIT_IA_XTR300
X_U1_U2_U28 U1_GND_FLOAT U1_U2_N318039 V I E20 E32 CURRENT_LIMIT_IA_XTR300
X_U1_U19 U1_VCC_CLP N5431182 U1_N5777562 U1_GND_FLOAT VCVS_LIMIT_XTR300 PARAMS: GAIN=100 VPOS=6000 VNEG=-6000
X_U1_U20 U1_VEE_CLP N5431182 U1_N5777576 U1_GND_FLOAT VCVS_LIMIT_XTR300 PARAMS: GAIN=100 VPOS=6000 VNEG=-6000
X_U1_U25 U1_PSRR_P U1_PSRR_N U1_N5752941 U1_N5756014 VCVS_LIMIT_XTR300 PARAMS: GAIN=-1 VPOS=2 VNEG=-2
X_U1_U26 U1_N5752941 U1_N5752949 FEMT_IA_XTR300
X_U1_U27 U1_N5752949 U1_IN+_CMRR VNSE_IA_XTR300
X_U3 M1 M2 GND E32 V I E20 MODE_CONTROL_XTR300
X_U6 E20 E32 N5476524 OR2_BASIC_GEN_SAN_XTR300 PARAMS: VDD=1 VEE=0 VTH=0.5
X_U7 N5476524 I I_E32_E20 OR2_BASIC_GEN_SAN_XTR300 PARAMS: VDD=1 VEE=0 VTH=0.5
X_U8 N5476524 V V_E32_E20 OR2_BASIC_GEN_SAN_XTR300 PARAMS: VDD=1 VEE=0 VTH=0.5
X_U9 N5479773 IA_IN- N5483022 COMP_BASIC_GEN_0_XTR300 PARAMS: VDD=1 VEE=0
X_U10 IA_IN- N5480030 N5483331 COMP_BASIC_GEN_0_XTR300 PARAMS: VDD=1 VEE=0
X_U11 N5481224 IA_IN+ N5482568 COMP_BASIC_GEN_0_XTR300 PARAMS: VDD=1 VEE=0
X_U12 IA_IN+ N5481244 N5482719 COMP_BASIC_GEN_0_XTR300 PARAMS: VDD=1 VEE=0
X_U13 N5482568 N5482719 N5483967 OR2_BASIC_GEN_SAN_XTR300 PARAMS: VDD=1 VEE=0 VTH=0.5
X_U14 N5483022 N5483331 N5483646 OR2_BASIC_GEN_SAN_XTR300 PARAMS: VDD=1 VEE=0 VTH=0.5
X_U15 N5483967 N5483646 N5485548 OR2_BASIC_GEN_SAN_XTR300 PARAMS: VDD=1 VEE=0 VTH=0.5
X_U16 N5492367 N5492345 N5492457 COMP_BASIC_GEN_0_XTR300 PARAMS: VDD=1 VEE=0
X_U17 N5492345 N5492393 N5492465 COMP_BASIC_GEN_0_XTR300 PARAMS: VDD=1 VEE=0
X_U18 N5492457 N5492465 N5492944 OR2_BASIC_GEN_SAN_XTR300 PARAMS: VDD=1 VEE=0 VTH=0.5
X_U19 N5492345 GND V I IOK DRV EFLD_SIG_XTR300
X_U20 GND N5492367 V I EFLD_VTH_XTR300
X_U21 N5492393 GND V I EFLD_VTH_XTR300
.ENDS XTR300
*
.SUBCKT AND2_BASIC_GEN_SAN_0_XTR300 IN1 IN2 Y PARAMS: VDD=1 VEE=0 VTH=0.5
E1 Y 0 VALUE
+ ={(((VDD+VEE)/2)+((VDD-VEE)/2)*TANH((V(IN1,0)-VTH)*1E6))*(((VDD+VEE)/2)+((VDD-VEE)/2)*TANH((V(IN2,0)-VTH)*1E6))}
.ENDS AND2_BASIC_GEN_SAN_0_XTR300
*
.SUBCKT COMP_BASIC_GEN_0_XTR300 INP INM Y PARAMS: VDD=1 VEE=0
E_ABM Y 0 VALUE = {((VDD+VEE)/2)+((VDD-VEE)/2)*TANH(10E6*(V(INP)-V(INM)))}
.ENDS COMP_BASIC_GEN_0_XTR300
*
.SUBCKT CURRENT_LIMIT_IA_XTR300 VOUT+ VOUT- V_M I_M EXT20 EXT32
E1 VOUT+ VOUT- VALUE={0.5*((V(V_M)*4.5)+(V(I_M)*7.2)+(V(EXT20)*4.5)+(V(EXT32)*7.2))}
.ENDS CURRENT_LIMIT_IA_XTR300
*
.SUBCKT DIODE_IDEAL_XTR300 A C
.MODEL DNOM D (CJO=1E-18 IS=1E-15 RS=1E-3)
D1 A C DNOM 
.ENDS DIODE_IDEAL_XTR300
*
.SUBCKT EFLD_SIG_XTR300 VOUT+ VOUT- V_M I_M VIMON DRV
E1 VOUT+ VOUT- VALUE={((V(V_M)*V(VIMON))+(V(I_M)*V(DRV)))}
.ENDS EFLD_SIG_XTR300
*
.SUBCKT EFLD_VTH_XTR300 VOUT+ VOUT- V_M I_M
E1 VOUT+ VOUT- VALUE={((V(V_M)*20)+(V(I_M)*18.72))}
.ENDS EFLD_VTH_XTR300
*
.SUBCKT FEMT_IA_XTR300 1 2
.PARAM FLWF=340
.PARAM GLFF={PWR(FLWF,0.25)*NLFF/1164}
.PARAM NLFF=8960
.PARAM NVRF=3530
.PARAM RNVF={1.184*PWR(NVRF,2)}
.MODEL DVNF D (KF={PWR(FLWF,0.5)/1E11} IS=1.0E-16)
C1 1 0 1E-15 
C2 2 0 1E-15 
C3 1 2 1E-15 
D1 7 0 DVNF 
D2 8 0 DVNF 
E1 3 6 7 8 {GLFF}
E2 6 4 5 0 10
G1 1 2 3 4 1E-6
I1 0 7 10E-3
I2 0 8 10E-3
R1 3 0 1E9 
R2 3 0 1E9 
R3 3 6 1E9 
R4 5 0 {RNVF} 
R5 5 0 {RNVF} 
R6 3 4 1E9 
R7 4 0 1E9 
.ENDS FEMT_IA_XTR300
*
.SUBCKT FEMT_OPA_XTR300 1 2
.PARAM FLWF=340
.PARAM GLFF={PWR(FLWF,0.25)*NLFF/1164}
.PARAM NLFF=8960
.PARAM NVRF=3530
.PARAM RNVF={1.184*PWR(NVRF,2)}
.MODEL DVNF D (KF={PWR(FLWF,0.5)/1E11} IS=1.0E-16)
C1 1 0 1E-15 
C2 2 0 1E-15 
C3 1 2 1E-15 
D1 7 0 DVNF 
D2 8 0 DVNF 
E1 3 6 7 8 {GLFF}
E2 6 4 5 0 10
G1 1 2 3 4 1E-6
I1 0 7 10E-3
I2 0 8 10E-3
R1 3 0 1E9 
R2 3 0 1E9 
R3 3 6 1E9 
R4 5 0 {RNVF} 
R5 5 0 {RNVF} 
R6 3 4 1E9 
R7 4 0 1E9 
.ENDS FEMT_OPA_XTR300
*
.SUBCKT IA_SCH_U1_F1_XTR300 1 2 3 4
F_U1_F1 3 4 VF_U1_F1 2
VF_U1_F1 1 2 0V
.ENDS IA_SCH_U1_F1_XTR300
*
.SUBCKT IA_SCH_U1_S5_XTR300 1 2 3 4
.MODEL _U1_S5 VSWITCH (ROFF=100E6 RON=1 VOFF=-10V VON=10V)
RS_U1_S5 1 2 1G 
S_U1_S5 3 4 1 2 _U1_S5
.ENDS IA_SCH_U1_S5_XTR300
*
.SUBCKT IA_SCH_U1_S6_XTR300 1 2 3 4
.MODEL _U1_S6 VSWITCH (ROFF=100E6 RON=1 VOFF=-10V VON=10V)
RS_U1_S6 1 2 1G 
S_U1_S6 3 4 1 2 _U1_S6
.ENDS IA_SCH_U1_S6_XTR300
*
.SUBCKT ICL_OPA_XTR300 VOUT+ VOUT- V_M I_M EXT20 EXT32
E1 VOUT+ VOUT- VALUE={((V(V_M)*20)+(V(I_M)*32)+(V(EXT20)*20)+(V(EXT32)*32))}
.ENDS ICL_OPA_XTR300
*
.SUBCKT INV_BASIC_GEN_SAN_0_XTR300 IN Y PARAMS: VDD=1 VEE=0 VTH=0.5