**$ENCRYPTED_LIB
**$INTERFACE
*$
.SUBCKT INV_BASIC_GEN A  Y PARAMS: VDD=1 VSS=0 VTHRESH=0.5 
$CDNENCSTART_ADV2
17f62b1fb318c25603aeb85644ae98a5d179ef807807791f6459efacb9d7ffc37a831b146dc0f06bb1ef275619162e6d8f7ad0dc708bf15ae1a1d5bd0ae623b2
86cf27ea17897a8cb60df20d05c273fb463c60c76d6334b75e98d0c9903dbd1ecfc0e08f63319350a0d2430850129986db03e08c6bd33c25f0f363a96a1f99a6
17aa90e4a67664d4f9eaeca2cb7e984dd79058b48c495ff1c2ade808122dba491ff6e65cd98481291f4064b2b8f0d73d84a1d0e0743af065a9be925f53064b19
8363aee06cfc25677ed5c9df02c7a1ae4a0fab6b3d106ea8f1d8da39dcdbb56f81d899ce57fb68c1e3d768d40ad0a744e655102b7eb68831d39b64cad0e9cc34
cc8337274625515e1e30864a250978bcddb208db1ee1e6fd72781cb1eacd7c51f22c5eb00a3cc78809289ff1a6586c63e25c4ac39563ee697c3baf65972e1c97
$CDNENCFINISH_ADV2
.ENDS INV_BASIC_GEN
*$
.SUBCKT INV_DELAY_BASIC_GEN A  Y PARAMS: VDD=1 VSS=0 VTHRESH=0.5 DELAY = 10n 
$CDNENCSTART_ADV2
17f62b1fb318c25603aeb85644ae98a5d179ef807807791f6459efacb9d7ffc37a831b146dc0f06bb1ef275619162e6d8f7ad0dc708bf15ae1a1d5bd0ae623b2
2aecf25d003402c0e137d1dfe4849b39a3523bb9c6f97cd613838f166dc635e973af7abf679f0076a7164531d17c6dd78802ed3720387bd9ec6f1d1f4d3304f7
9782fdce2eea164ee7b7ba887275ee00d79058b48c495ff1c2ade808122dba491ff6e65cd98481291f4064b2b8f0d73d84a1d0e0743af065a9be925f53064b19
c37316c7f7cb7a07bc8bead5adcbad9032557f0affaac48f7336f3115803f62582946dfbb12e1527b18b1f0007ba2971b8b0e8a675a02ee12c45231bb2ce6ce4
84b2bca1b34c9a076cc2ce5ab78cc0eb260047f6f6111e1f47baf583b45b85e878c224d6ecb9ff3038a06c7351be7655f9125c2e1ac7629d41fa8c0ebad6a4cb
93925383d4898e7cf4b9513992c03407702f536b3a9b4b388ccadbeaee947bdbc87cb91ceeaf3366cc997f008972b6db876dfa796b0c62666e35466ec669d1bd
17aa90e4a67664d4f9eaeca2cb7e984dd79058b48c495ff1c2ade808122dba491ff6e65cd98481291f4064b2b8f0d73d84a1d0e0743af065a9be925f53064b19
681e6bbcd42bf181dd240aac49553fba05ad612af00cf8efc296f311e36713d018dc8207942309a266e0103b71aca101cf65516317c3b1307993b29422e5b0af
8b254be219850080048a234840fe4fbf1d1ac11084e7095ab08ed85e9686f35f5fdafc3709ccac070166fc9a71b5c335219865516f8feb3794bca99c6b51ccfa
$CDNENCFINISH_ADV2
.ENDS INV_DELAY_BASIC_GEN
*$
.SUBCKT AND2_BASIC_GEN A B Y PARAMS: VDD=1 VSS=0 VTHRESH=0.5 
$CDNENCSTART_ADV2
17f62b1fb318c25603aeb85644ae98a5d179ef807807791f6459efacb9d7ffc37a831b146dc0f06bb1ef275619162e6d8f7ad0dc708bf15ae1a1d5bd0ae623b2
86cf27ea17897a8cb60df20d05c273fb463c60c76d6334b75e98d0c9903dbd1ecfc0e08f63319350a0d243085012998690d8b7bd172ae644bd77fca8cceb745d
0242b14f7642c07a6d9287a63f6461352391fe406c6a9c4085f8c2cbc54e9cb49c0248d7036a44c4f2ea90684eb4ce383ab11314a8296f8eb4e947bf51cb0aca
8363aee06cfc25677ed5c9df02c7a1ae4a0fab6b3d106ea8f1d8da39dcdbb56f81d899ce57fb68c1e3d768d40ad0a744e655102b7eb68831d39b64cad0e9cc34
cc8337274625515e1e30864a250978bcddb208db1ee1e6fd72781cb1eacd7c51f22c5eb00a3cc78809289ff1a6586c63e25c4ac39563ee697c3baf65972e1c97
$CDNENCFINISH_ADV2
.ENDS AND2_BASIC_GEN
*$
.SUBCKT AND3_BASIC_GEN A B C Y PARAMS: VDD=1 VSS=0 VTHRESH=0.5 
$CDNENCSTART_ADV2
17f62b1fb318c25603aeb85644ae98a5d179ef807807791f6459efacb9d7ffc37a831b146dc0f06bb1ef275619162e6d8f7ad0dc708bf15ae1a1d5bd0ae623b2
86cf27ea17897a8cb60df20d05c273fb463c60c76d6334b75e98d0c9903dbd1ecfc0e08f63319350a0d243085012998690d8b7bd172ae644bd77fca8cceb745d
0242b14f7642c07a6d9287a63f646135b9b8d019cbf71c58c4920fd7cfeb34f7fe52dd637248243cd17ea5623aa13e10d49aa76ce2f528b0c5ad93a7d9bd6759
6bbdaac0db071c63b7512b8e4eb399c32391fe406c6a9c4085f8c2cbc54e9cb49c0248d7036a44c4f2ea90684eb4ce383ab11314a8296f8eb4e947bf51cb0aca
8363aee06cfc25677ed5c9df02c7a1ae4a0fab6b3d106ea8f1d8da39dcdbb56f81d899ce57fb68c1e3d768d40ad0a744e655102b7eb68831d39b64cad0e9cc34
cc8337274625515e1e30864a250978bcddb208db1ee1e6fd72781cb1eacd7c51f22c5eb00a3cc78809289ff1a6586c63e25c4ac39563ee697c3baf65972e1c97
$CDNENCFINISH_ADV2
.ENDS AND3_BASIC_GEN
*$
.SUBCKT AND4_BASIC_GEN A B C D Y PARAMS: VDD=1 VSS=0 VTHRESH=0.5 
$CDNENCSTART_ADV2
17f62b1fb318c25603aeb85644ae98a5d179ef807807791f6459efacb9d7ffc37a831b146dc0f06bb1ef275619162e6d8f7ad0dc708bf15ae1a1d5bd0ae623b2
86cf27ea17897a8cb60df20d05c273fb463c60c76d6334b75e98d0c9903dbd1ecfc0e08f63319350a0d243085012998690d8b7bd172ae644bd77fca8cceb745d
0242b14f7642c07a6d9287a63f646135b9b8d019cbf71c58c4920fd7cfeb34f7fe52dd637248243cd17ea5623aa13e10d49aa76ce2f528b0c5ad93a7d9bd6759
6bbdaac0db071c63b7512b8e4eb399c3b9b8d019cbf71c58c4920fd7cfeb34f7fe52dd637248243cd17ea5623aa13e10d49aa76ce2f528b0c5ad93a7d9bd6759
cfb0d637da034bbebd53bfa85da719252391fe406c6a9c4085f8c2cbc54e9cb49c0248d7036a44c4f2ea90684eb4ce383ab11314a8296f8eb4e947bf51cb0aca
8363aee06cfc25677ed5c9df02c7a1ae4a0fab6b3d106ea8f1d8da39dcdbb56f81d899ce57fb68c1e3d768d40ad0a744e655102b7eb68831d39b64cad0e9cc34
cc8337274625515e1e30864a250978bcddb208db1ee1e6fd72781cb1eacd7c51f22c5eb00a3cc78809289ff1a6586c63e25c4ac39563ee697c3baf65972e1c97
$CDNENCFINISH_ADV2
.ENDS AND4_BASIC_GEN
*$
.SUBCKT NAND2_BASIC_GEN A B Y PARAMS: VDD=1 VSS=0 VTHRESH=0.5 
$CDNENCSTART_ADV2
17f62b1fb318c25603aeb85644ae98a5d179ef807807791f6459efacb9d7ffc37a831b146dc0f06bb1ef275619162e6d8f7ad0dc708bf15ae1a1d5bd0ae623b2
86cf27ea17897a8cb60df20d05c273fb463c60c76d6334b75e98d0c9903dbd1ecfc0e08f63319350a0d243085012998690d8b7bd172ae644bd77fca8cceb745d
0242b14f7642c07a6d9287a63f6461351cd4ececdb1a5665b6f57a4af82947749c0248d7036a44c4f2ea90684eb4ce383ab11314a8296f8eb4e947bf51cb0aca
f2e089e3499baa736280298a542329b4629b72e50bc0855b819b2020b157329a2bb08ea2ca2b39f5f41a7b739d3783218ee0e724a3749847b7cc72bad9bd2f47
cc8337274625515e1e30864a250978bcddb208db1ee1e6fd72781cb1eacd7c51f22c5eb00a3cc78809289ff1a6586c63e25c4ac39563ee697c3baf65972e1c97
$CDNENCFINISH_ADV2
.ENDS NAND2_BASIC_GEN
*$
.SUBCKT NAND3_BASIC_GEN A B C Y PARAMS: VDD=1 VSS=0 VTHRESH=0.5 
$CDNENCSTART_ADV2
17f62b1fb318c25603aeb85644ae98a5d179ef807807791f6459efacb9d7ffc37a831b146dc0f06bb1ef275619162e6d8f7ad0dc708bf15ae1a1d5bd0ae623b2
86cf27ea17897a8cb60df20d05c273fb463c60c76d6334b75e98d0c9903dbd1ecfc0e08f63319350a0d243085012998690d8b7bd172ae644bd77fca8cceb745d
0242b14f7642c07a6d9287a63f646135b9b8d019cbf71c58c4920fd7cfeb34f7fe52dd637248243cd17ea5623aa13e10d49aa76ce2f528b0c5ad93a7d9bd6759
6bbdaac0db071c63b7512b8e4eb399c31cd4ececdb1a5665b6f57a4af82947749c0248d7036a44c4f2ea90684eb4ce383ab11314a8296f8eb4e947bf51cb0aca
f2e089e3499baa736280298a542329b4629b72e50bc0855b819b2020b157329a2bb08ea2ca2b39f5f41a7b739d3783218ee0e724a3749847b7cc72bad9bd2f47
cc8337274625515e1e30864a250978bcddb208db1ee1e6fd72781cb1eacd7c51f22c5eb00a3cc78809289ff1a6586c63e25c4ac39563ee697c3baf65972e1c97
$CDNENCFINISH_ADV2
.ENDS NAND3_BASIC_GEN
*$
.SUBCKT NAND4_BASIC_GEN A B C D Y PARAMS: VDD=1 VSS=0 VTHRESH=0.5 
$CDNENCSTART_ADV2
17f62b1fb318c25603aeb85644ae98a5d179ef807807791f6459efacb9d7ffc37a831b146dc0f06bb1ef275619162e6d8f7ad0dc708bf15ae1a1d5bd0ae623b2
86cf27ea17897a8cb60df20d05c273fb463c60c76d6334b75e98d0c9903dbd1ecfc0e08f63319350a0d243085012998690d8b7bd172ae644bd77fca8cceb745d
0242b14f7642c07a6d9287a63f646135b9b8d019cbf71c58c4920fd7cfeb34f7fe52dd637248243cd17ea5623aa13e10d49aa76ce2f528b0c5ad93a7d9bd6759
6bbdaac0db071c63b7512b8e4eb399c3b9b8d019cbf71c58c4920fd7cfeb34f7fe52dd637248243cd17ea5623aa13e10d49aa76ce2f528b0c5ad93a7d9bd6759
cfb0d637da034bbebd53bfa85da719251cd4ececdb1a5665b6f57a4af82947749c0248d7036a44c4f2ea90684eb4ce383ab11314a8296f8eb4e947bf51cb0aca
f2e089e3499baa736280298a542329b4629b72e50bc0855b819b2020b157329a2bb08ea2ca2b39f5f41a7b739d3783218ee0e724a3749847b7cc72bad9bd2f47
cc8337274625515e1e30864a250978bcddb208db1ee1e6fd72781cb1eacd7c51f22c5eb00a3cc78809289ff1a6586c63e25c4ac39563ee697c3baf65972e1c97
$CDNENCFINISH_ADV2
.ENDS NAND4_BASIC_GEN
*$
.SUBCKT NOR2_BASIC_GEN A B Y PARAMS: VDD=1 VSS=0 VTHRESH=0.5 
$CDNENCSTART_ADV2
17f62b1fb318c25603aeb85644ae98a5d179ef807807791f6459efacb9d7ffc37a831b146dc0f06bb1ef275619162e6d8f7ad0dc708bf15ae1a1d5bd0ae623b2
86cf27ea17897a8cb60df20d05c273fb463c60c76d6334b75e98d0c9903dbd1ecfc0e08f63319350a0d243085012998600bf9e5b7bed3db5554a615c0ed29142
0242b14f7642c07a6d9287a63f6461351cd4ececdb1a5665b6f57a4af82947749c0248d7036a44c4f2ea90684eb4ce383ab11314a8296f8eb4e947bf51cb0aca
f2e089e3499baa736280298a542329b4629b72e50bc0855b819b2020b157329a2bb08ea2ca2b39f5f41a7b739d3783218ee0e724a3749847b7cc72bad9bd2f47
cc8337274625515e1e30864a250978bcddb208db1ee1e6fd72781cb1eacd7c51f22c5eb00a3cc78809289ff1a6586c63e25c4ac39563ee697c3baf65972e1c97
$CDNENCFINISH_ADV2
.ENDS NOR2_BASIC_GEN
*$
.SUBCKT NOR3_BASIC_GEN A B C Y PARAMS: VDD=1 VSS=0 VTHRESH=0.5 
$CDNENCSTART_ADV2
17f62b1fb318c25603aeb85644ae98a5d179ef807807791f6459efacb9d7ffc37a831b146dc0f06bb1ef275619162e6d8f7ad0dc708bf15ae1a1d5bd0ae623b2
86cf27ea17897a8cb60df20d05c273fb463c60c76d6334b75e98d0c9903dbd1ecfc0e08f63319350a0d243085012998600bf9e5b7bed3db5554a615c0ed29142
0242b14f7642c07a6d9287a63f646135148284e917b0442fdf5558b4a402fd15fe52dd637248243cd17ea5623aa13e10d49aa76ce2f528b0c5ad93a7d9bd6759
6bbdaac0db071c63b7512b8e4eb399c31cd4ececdb1a5665b6f57a4af82947749c0248d7036a44c4f2ea90684eb4ce383ab11314a8296f8eb4e947bf51cb0aca
f2e089e3499baa736280298a542329b4629b72e50bc0855b819b2020b157329a2bb08ea2ca2b39f5f41a7b739d3783218ee0e724a3749847b7cc72bad9bd2f47
cc8337274625515e1e30864a250978bcddb208db1ee1e6fd72781cb1eacd7c51f22c5eb00a3cc78809289ff1a6586c63e25c4ac39563ee697c3baf65972e1c97
$CDNENCFINISH_ADV2
.ENDS NOR3_BASIC_GEN
*$
.SUBCKT NOR4_BASIC_GEN A B C D Y PARAMS: VDD=1 VSS=0 VTHRESH=0.5 
$CDNENCSTART_ADV2
17f62b1fb318c25603aeb85644ae98a5d179ef807807791f6459efacb9d7ffc37a831b146dc0f06bb1ef275619162e6d8f7ad0dc708bf15ae1a1d5bd0ae623b2
86cf27ea17897a8cb60df20d05c273fb463c60c76d6334b75e98d0c9903dbd1ecfc0e08f63319350a0d243085012998600bf9e5b7bed3db5554a615c0ed29142
0242b14f7642c07a6d9287a63f646135148284e917b0442fdf5558b4a402fd15fe52dd637248243cd17ea5623aa13e10d49aa76ce2f528b0c5ad93a7d9bd6759
6bbdaac0db071c63b7512b8e4eb399c3148284e917b0442fdf5558b4a402fd15fe52dd637248243cd17ea5623aa13e10d49aa76ce2f528b0c5ad93a7d9bd6759
cfb0d637da034bbebd53bfa85da719251cd4ececdb1a5665b6f57a4af82947749c0248d7036a44c4f2ea90684eb4ce383ab11314a8296f8eb4e947bf51cb0aca
f2e089e3499baa736280298a542329b4629b72e50bc0855b819b2020b157329a2bb08ea2ca2b39f5f41a7b739d3783218ee0e724a3749847b7cc72bad9bd2f47
cc8337274625515e1e30864a250978bcddb208db1ee1e6fd72781cb1eacd7c51f22c5eb00a3cc78809289ff1a6586c63e25c4ac39563ee697c3baf65972e1c97
$CDNENCFINISH_ADV2
.ENDS NOR4_BASIC_GEN
*$
.SUBCKT NOR5_BASIC_GEN A B C D E Y PARAMS: VDD=1 VSS=0 VTHRESH=0.5 
$CDNENCSTART_ADV2
17f62b1fb318c25603aeb85644ae98a5d179ef807807791f6459efacb9d7ffc37a831b146dc0f06bb1ef275619162e6d8f7ad0dc708bf15ae1a1d5bd0ae623b2
957d6d77e4fa70bae266e6fdb0265d2e2ea72a6e44e3dd2767d7041e5749fe27ae2f89ebfc1b13bf94360759543c247e36c1d674111274d15dc1de28d5721c7d
0242b14f7642c07a6d9287a63f646135148284e917b0442fdf5558b4a402fd15fe52dd637248243cd17ea5623aa13e10d49aa76ce2f528b0c5ad93a7d9bd6759
6bbdaac0db071c63b7512b8e4eb399c3148284e917b0442fdf5558b4a402fd15fe52dd637248243cd17ea5623aa13e10d49aa76ce2f528b0c5ad93a7d9bd6759
cfb0d637da034bbebd53bfa85da71925148284e917b0442fdf5558b4a402fd15fe52dd637248243cd17ea5623aa13e10d49aa76ce2f528b0c5ad93a7d9bd6759
2cceff1d3bbdfa871d870e673ef29ab61cd4ececdb1a5665b6f57a4af82947749c0248d7036a44c4f2ea90684eb4ce383ab11314a8296f8eb4e947bf51cb0aca
f2e089e3499baa736280298a542329b4629b72e50bc0855b819b2020b157329a2bb08ea2ca2b39f5f41a7b739d3783218ee0e724a3749847b7cc72bad9bd2f47
cc8337274625515e1e30864a250978bcddb208db1ee1e6fd72781cb1eacd7c51f22c5eb00a3cc78809289ff1a6586c63e25c4ac39563ee697c3baf65972e1c97
$CDNENCFINISH_ADV2
.ENDS NOR5_BASIC_GEN
*$
.SUBCKT NOR6_BASIC_GEN A B C D E F Y PARAMS: VDD=1 VSS=0 VTHRESH=0.5 
$CDNENCSTART_ADV2
17f62b1fb318c25603aeb85644ae98a5d179ef807807791f6459efacb9d7ffc37a831b146dc0f06bb1ef275619162e6d8f7ad0dc708bf15ae1a1d5bd0ae623b2
957d6d77e4fa70bae266e6fdb0265d2e2ea72a6e44e3dd2767d7041e5749fe27ae2f89ebfc1b13bf94360759543c247e36c1d674111274d15dc1de28d5721c7d
0242b14f7642c07a6d9287a63f646135148284e917b0442fdf5558b4a402fd15fe52dd637248243cd17ea5623aa13e10d49aa76ce2f528b0c5ad93a7d9bd6759
6bbdaac0db071c63b7512b8e4eb399c3148284e917b0442fdf5558b4a402fd15fe52dd637248243cd17ea5623aa13e10d49aa76ce2f528b0c5ad93a7d9bd6759
cfb0d637da034bbebd53bfa85da71925148284e917b0442fdf5558b4a402fd15fe52dd637248243cd17ea5623aa13e10d49aa76ce2f528b0c5ad93a7d9bd6759
2cceff1d3bbdfa871d870e673ef29ab6148284e917b0442fdf5558b4a402fd15fe52dd637248243cd17ea5623aa13e10d49aa76ce2f528b0c5ad93a7d9bd6759
df2fd7a5f08f111e4b882d50bd0f82e71cd4ececdb1a5665b6f57a4af82947749c0248d7036a44c4f2ea90684eb4ce383ab11314a8296f8eb4e947bf51cb0aca
f2e089e3499baa736280298a542329b4629b72e50bc0855b819b2020b157329a2bb08ea2ca2b39f5f41a7b739d3783218ee0e724a3749847b7cc72bad9bd2f47
cc8337274625515e1e30864a250978bcddb208db1ee1e6fd72781cb1eacd7c51f22c5eb00a3cc78809289ff1a6586c63e25c4ac39563ee697c3baf65972e1c97
$CDNENCFINISH_ADV2
.ENDS NOR6_BASIC_GEN
*$
.SUBCKT OR2_BASIC_GEN A B Y PARAMS: VDD=1 VSS=0 VTHRESH=0.5 
$CDNENCSTART_ADV2
17f62b1fb318c25603aeb85644ae98a5d179ef807807791f6459efacb9d7ffc37a831b146dc0f06bb1ef275619162e6d8f7ad0dc708bf15ae1a1d5bd0ae623b2
86cf27ea17897a8cb60df20d05c273fb463c60c76d6334b75e98d0c9903dbd1ecfc0e08f63319350a0d243085012998600bf9e5b7bed3db5554a615c0ed29142
0242b14f7642c07a6d9287a63f6461352391fe406c6a9c4085f8c2cbc54e9cb49c0248d7036a44c4f2ea90684eb4ce383ab11314a8296f8eb4e947bf51cb0aca
8363aee06cfc25677ed5c9df02c7a1ae4a0fab6b3d106ea8f1d8da39dcdbb56f81d899ce57fb68c1e3d768d40ad0a744e655102b7eb68831d39b64cad0e9cc34
cc8337274625515e1e30864a250978bcddb208db1ee1e6fd72781cb1eacd7c51f22c5eb00a3cc78809289ff1a6586c63e25c4ac39563ee697c3baf65972e1c97
$CDNENCFINISH_ADV2
.ENDS OR2_BASIC_GEN
*$
.SUBCKT OR3_BASIC_GEN A B C Y PARAMS: VDD=1 VSS=0 VTHRESH=0.5 
$CDNENCSTART_ADV2
17f62b1fb318c25603aeb85644ae98a5d179ef807807791f6459efacb9d7ffc37a831b146dc0f06bb1ef275619162e6d8f7ad0dc708bf15ae1a1d5bd0ae623b2
86cf27ea17897a8cb60df20d05c273fb463c60c76d6334b75e98d0c9903dbd1ecfc0e08f63319350a0d243085012998600bf9e5b7bed3db5554a615c0ed29142
0242b14f7642c07a6d9287a63f646135148284e917b0442fdf5558b4a402fd15fe52dd637248243cd17ea5623aa13e10d49aa76ce2f528b0c5ad93a7d9bd6759
6bbdaac0db071c63b7512b8e4eb399c32391fe406c6a9c4085f8c2cbc54e9cb49c0248d7036a44c4f2ea90684eb4ce383ab11314a8296f8eb4e947bf51cb0aca
8363aee06cfc25677ed5c9df02c7a1ae4a0fab6b3d106ea8f1d8da39dcdbb56f81d899ce57fb68c1e3d768d40ad0a744e655102b7eb68831d39b64cad0e9cc34
cc8337274625515e1e30864a250978bcddb208db1ee1e6fd72781cb1eacd7c51f22c5eb00a3cc78809289ff1a6586c63e25c4ac39563ee697c3baf65972e1c97
$CDNENCFINISH_ADV2
.ENDS OR3_BASIC_GEN
*$
.SUBCKT OR4_BASIC_GEN A B C D Y PARAMS: VDD=1 VSS=0 VTHRESH=0.5 
$CDNENCSTART_ADV2
17f62b1fb318c25603aeb85644ae98a5d179ef807807791f6459efacb9d7ffc37a831b146dc0f06bb1ef275619162e6d8f7ad0dc708bf15ae1a1d5bd0ae623b2
86cf27ea17897a8cb60df20d05c273fb463c60c76d6334b75e98d0c9903dbd1ecfc0e08f63319350a0d243085012998600bf9e5b7bed3db5554a615c0ed29142
0242b14f7642c07a6d9287a63f646135148284e917b0442fdf5558b4a402fd15fe52dd637248243cd17ea5623aa13e10d49aa76ce2f528b0c5ad93a7d9bd6759
6bbdaac0db071c63b7512b8e4eb399c3148284e917b0442fdf5558b4a402fd15fe52dd637248243cd17ea5623aa13e10d49aa76ce2f528b0c5ad93a7d9bd6759
cfb0d637da034bbebd53bfa85da719252391fe406c6a9c4085f8c2cbc54e9cb49c0248d7036a44c4f2ea90684eb4ce383ab11314a8296f8eb4e947bf51cb0aca
8363aee06cfc25677ed5c9df02c7a1ae4a0fab6b3d106ea8f1d8da39dcdbb56f81d899ce57fb68c1e3d768d40ad0a744e655102b7eb68831d39b64cad0e9cc34
cc8337274625515e1e30864a250978bcddb208db1ee1e6fd72781cb1eacd7c51f22c5eb00a3cc78809289ff1a6586c63e25c4ac39563ee697c3baf65972e1c97
$CDNENCFINISH_ADV2
.ENDS OR4_BASIC_GEN
*$
.SUBCKT XNOR2_BASIC_GEN A B Y PARAMS: VDD=1 VSS=0 VTHRESH=0.5 
$CDNENCSTART_ADV2
17f62b1fb318c25603aeb85644ae98a5d179ef807807791f6459efacb9d7ffc37a831b146dc0f06bb1ef275619162e6d8f7ad0dc708bf15ae1a1d5bd0ae623b2
f74a1ffe2f6f72c2fca16999b5d0a02078ec511e7b333c743318de13ed7300b8d91df876e2b6c9b3fd9fa2f4d508bd0754eee2b07c72e589cedd8941c53ad3ed
0242b14f7642c07a6d9287a63f6461351cd4ececdb1a5665b6f57a4af82947749c0248d7036a44c4f2ea90684eb4ce383ab11314a8296f8eb4e947bf51cb0aca
f2e089e3499baa736280298a542329b4629b72e50bc0855b819b2020b157329a2bb08ea2ca2b39f5f41a7b739d3783218ee0e724a3749847b7cc72bad9bd2f47
cc8337274625515e1e30864a250978bcddb208db1ee1e6fd72781cb1eacd7c51f22c5eb00a3cc78809289ff1a6586c63e25c4ac39563ee697c3baf65972e1c97
$CDNENCFINISH_ADV2
.ENDS XNOR2_BASIC_GEN
*$
.SUBCKT XOR2_BASIC_GEN A B Y PARAMS: VDD=1 VSS=0 VTHRESH=0.5 
$CDNENCSTART_ADV2
17f62b1fb318c25603aeb85644ae98a5d179ef807807791f6459efacb9d7ffc37a831b146dc0f06bb1ef275619162e6d8f7ad0dc708bf15ae1a1d5bd0ae623b2
f74a1ffe2f6f72c2fca16999b5d0a02078ec511e7b333c743318de13ed7300b8d91df876e2b6c9b3fd9fa2f4d508bd0754eee2b07c72e589cedd8941c53ad3ed
0242b14f7642c07a6d9287a63f6461352391fe406c6a9c4085f8c2cbc54e9cb49c0248d7036a44c4f2ea90684eb4ce383ab11314a8296f8eb4e947bf51cb0aca
f2e089e3499baa736280298a542329b4629b72e50bc0855b819b2020b157329a2bb08ea2ca2b39f5f41a7b739d3783218ee0e724a3749847b7cc72bad9bd2f47
cc8337274625515e1e30864a250978bcddb208db1ee1e6fd72781cb1eacd7c51f22c5eb00a3cc78809289ff1a6586c63e25c4ac39563ee697c3baf65972e1c97
$CDNENCFINISH_ADV2
.ENDS XOR2_BASIC_GEN
*$
.SUBCKT BUF_BASIC_GEN A  Y PARAMS: VDD=1 VSS=0 VTHRESH=0.5 
$CDNENCSTART_ADV2
17f62b1fb318c25603aeb85644ae98a5d179ef807807791f6459efacb9d7ffc37a831b146dc0f06bb1ef275619162e6d8f7ad0dc708bf15ae1a1d5bd0ae623b2
86cf27ea17897a8cb60df20d05c273fb463c60c76d6334b75e98d0c9903dbd1ecfc0e08f63319350a0d2430850129986db03e08c6bd33c25f0f363a96a1f99a6
9782fdce2eea164ee7b7ba887275ee00d79058b48c495ff1c2ade808122dba491ff6e65cd98481291f4064b2b8f0d73d84a1d0e0743af065a9be925f53064b19
f2e089e3499baa736280298a542329b4629b72e50bc0855b819b2020b157329a2bb08ea2ca2b39f5f41a7b739d3783218ee0e724a3749847b7cc72bad9bd2f47
cc8337274625515e1e30864a250978bcddb208db1ee1e6fd72781cb1eacd7c51f22c5eb00a3cc78809289ff1a6586c63e25c4ac39563ee697c3baf65972e1c97
$CDNENCFINISH_ADV2
.ENDS BUF_BASIC_GEN
*$
.SUBCKT BUF_DELAY_BASIC_GEN A  Y PARAMS: VDD=1 VSS=0 VTHRESH=0.5 DELAY = 10n 
$CDNENCSTART_ADV2
17f62b1fb318c25603aeb85644ae98a5d179ef807807791f6459efacb9d7ffc37a831b146dc0f06bb1ef275619162e6d8f7ad0dc708bf15ae1a1d5bd0ae623b2
2aecf25d003402c0e137d1dfe4849b39a3523bb9c6f97cd613838f166dc635e973af7abf679f0076a7164531d17c6dd78802ed3720387bd9ec6f1d1f4d3304f7
9782fdce2eea164ee7b7ba887275ee00d79058b48c495ff1c2ade808122dba491ff6e65cd98481291f4064b2b8f0d73d84a1d0e0743af065a9be925f53064b19
c37316c7f7cb7a07bc8bead5adcbad9032557f0affaac48f7336f3115803f62582946dfbb12e1527b18b1f0007ba2971b8b0e8a675a02ee12c45231bb2ce6ce4
84b2bca1b34c9a076cc2ce5ab78cc0eb260047f6f6111e1f47baf583b45b85e878c224d6ecb9ff3038a06c7351be7655f9125c2e1ac7629d41fa8c0ebad6a4cb
93925383d4898e7cf4b9513992c03407702f536b3a9b4b388ccadbeaee947bdbc87cb91ceeaf3366cc997f008972b6db876dfa796b0c62666e35466ec669d1bd
9782fdce2eea164ee7b7ba887275ee00d79058b48c495ff1c2ade808122dba491ff6e65cd98481291f4064b2b8f0d73d84a1d0e0743af065a9be925f53064b19
681e6bbcd42bf181dd240aac49553fba05ad612af00cf8efc296f311e36713d018dc8207942309a266e0103b71aca101cf65516317c3b1307993b29422e5b0af
8b254be219850080048a234840fe4fbf1d1ac11084e7095ab08ed85e9686f35f5fdafc3709ccac070166fc9a71b5c335219865516f8feb3794bca99c6b51ccfa
$CDNENCFINISH_ADV2
.ENDS BUF_DELAY_BASIC_GEN
*$
.SUBCKT COMP_BASIC_GEN INP INM Y PARAMS: VDD=1 VSS=0 VTHRESH=0.5	
$CDNENCSTART_ADV2
17f62b1fb318c25603aeb85644ae98a5d179ef807807791f6459efacb9d7ffc37a831b146dc0f06bb1ef275619162e6d8f7ad0dc708bf15ae1a1d5bd0ae623b2
62b1f6b9ea0bd84427725f3a867c56e9c95d46949f926efdc398781bcdb6767c33ab07fb0e75e968d5d81c2e0f56ab723ab11314a8296f8eb4e947bf51cb0aca
cee4f4bd2f2a43b2e71781b1547d64710f17d1f270cb149c522c7141649caf8cc93062d5e5f23eb0ddbb13b16b02bbd4f40e78419172fc1d5a55eb5051f72ab7
ff81b7b151e8a5df2a58038a412f9c151d1ac11084e7095ab08ed85e9686f35f5fdafc3709ccac070166fc9a71b5c335219865516f8feb3794bca99c6b51ccfa
e724298408029421efdd4f0241ad2d7aabd60f35fab1cd1239c19fba482afa1909a33cbba67efd0331e3a2712a99ec03fe4d8dbbf9fcee39014f82e47eb757e7
$CDNENCFINISH_ADV2
.ENDS COMP_BASIC_GEN
*$
.SUBCKT COMPHYS2_BASIC_GEN INP INM HYS OUT PARAMS: VDD=1 VSS=0 VTHRESH=0.5	
+ T=10
$CDNENCSTART_ADV2
17f62b1fb318c25603aeb85644ae98a5d179ef807807791f6459efacb9d7ffc37a831b146dc0f06bb1ef275619162e6d8f7ad0dc708bf15ae1a1d5bd0ae623b2
00b53bbe8aae8852330f25271bb63ecb953655ea9f81682994ec3b1119e5a34578c224d6ecb9ff3038a06c7351be7655f9125c2e1ac7629d41fa8c0ebad6a4cb
6da8e3c79daacf6bcc4b5c9f3276a5e1bf8222e25b990f2da798a9a0a112ff9bb92ed6f3db7fa99fa26abaf945e35c2dc1fe0909c876c882f935df6ad6b24a2d
e04ad669fcbaaee4313bf640486252fc89b678395e5f0f258d5f346e4cbaab9d3b32bc3046e85190cd6629460517d9761c568533975d52e635061d5b10c41e88
454a7b940f4bb638243842aeebba109a981014b009763d07c03ca2d519d05441200fbd6686510e802de5cea6567af097fd42ac82d5d9ef3a1da8b708609f875f
f1a099fa9e88373d209a5071a598811294fc3816cc676330b5a60527c2a5f8039a38847c9d29dbd44f812ee45e3d1b512c3dcccf62a46bfa8480596ea131c1ba
c471a5575aa935329ae94ec01f257f6a05ad612af00cf8efc296f311e36713d018dc8207942309a266e0103b71aca101cf65516317c3b1307993b29422e5b0af
0cf2e79efca00f0cf90b5029bbec2324d79058b48c495ff1c2ade808122dba491ff6e65cd98481291f4064b2b8f0d73d84a1d0e0743af065a9be925f53064b19
b2102affbbe4050de9060c88b73b68f4d79058b48c495ff1c2ade808122dba491ff6e65cd98481291f4064b2b8f0d73d84a1d0e0743af065a9be925f53064b19
$CDNENCFINISH_ADV2
.ENDS COMPHYS2_BASIC_GEN
*$
.SUBCKT COMPHYS_BASIC_GEN INP INM HYS OUT PARAMS: VDD=1 VSS=0 VTHRESH=0.5	
$CDNENCSTART_ADV2
17f62b1fb318c25603aeb85644ae98a5d179ef807807791f6459efacb9d7ffc37a831b146dc0f06bb1ef275619162e6d8f7ad0dc708bf15ae1a1d5bd0ae623b2
00b53bbe8aae8852330f25271bb63ecb953655ea9f81682994ec3b1119e5a34578c224d6ecb9ff3038a06c7351be7655f9125c2e1ac7629d41fa8c0ebad6a4cb
3e3f3e87086a35502de552f1ad36fdf5bf8222e25b990f2da798a9a0a112ff9bb92ed6f3db7fa99fa26abaf945e35c2d14f287c6424e06d4f74fcc3df8c6b260
454a7b940f4bb638243842aeebba109a8e2e962c97ddc20b67358915b778ac64130ecf4cc706742a6f2e1f35c49e2d86fd42ac82d5d9ef3a1da8b708609f875f
f1a099fa9e88373d209a5071a598811294fc3816cc676330b5a60527c2a5f8039a38847c9d29dbd44f812ee45e3d1b512c3dcccf62a46bfa8480596ea131c1ba
6929d30d9bff3e5a76f871fc26ddeae3abd60f35fab1cd1239c19fba482afa1909a33cbba67efd0331e3a2712a99ec03fe4d8dbbf9fcee39014f82e47eb757e7
fd1a31ae51a840473b9a41745a20811105ad612af00cf8efc296f311e36713d018dc8207942309a266e0103b71aca101cf65516317c3b1307993b29422e5b0af
$CDNENCFINISH_ADV2
.ENDS COMPHYS_BASIC_GEN
*$
.SUBCKT MUX2_BASIC_GEN A B S Y PARAMS: VDD=1 VSS=0 VTHRESH=0.5 
$CDNENCSTART_ADV2
17f62b1fb318c25603aeb85644ae98a5d179ef807807791f6459efacb9d7ffc37a831b146dc0f06bb1ef275619162e6d8f7ad0dc708bf15ae1a1d5bd0ae623b2
f74a1ffe2f6f72c2fca16999b5d0a020be908fe4594a01def1dc08077713faa9959eab7059969b2c308f927d76fdc03ca9f71f814b440e73fff5e1d8f7cfd89d
7b18a1df5b08f06f83efd034466bb8544a0fab6b3d106ea8f1d8da39dcdbb56f81d899ce57fb68c1e3d768d40ad0a744e655102b7eb68831d39b64cad0e9cc34
f2e089e3499baa736280298a542329b4629b72e50bc0855b819b2020b157329a2bb08ea2ca2b39f5f41a7b739d3783218ee0e724a3749847b7cc72bad9bd2f47
cc8337274625515e1e30864a250978bcddb208db1ee1e6fd72781cb1eacd7c51f22c5eb00a3cc78809289ff1a6586c63e25c4ac39563ee697c3baf65972e1c97
$CDNENCFINISH_ADV2
.ENDS MUX2_BASIC_GEN
*$
.SUBCKT ONE_SHOT IN OUT PARAMS:  T=100
$CDNENCSTART_ADV2
17f62b1fb318c25603aeb85644ae98a5d179ef807807791f6459efacb9d7ffc37a831b146dc0f06bb1ef275619162e6d8f7ad0dc708bf15ae1a1d5bd0ae623b2
e58befa6d604d43009c8f618d82da38463adcf0451e5d809374764020a840a9305ad612af00cf8efc296f311e36713d0ff6b27c64037fc949d8a5c8f4239d600
dc65d73013f92327242a4580e3a86dcbda0725697215f67eb86eba78cf7019145f6a6747989ced3273e18aa2f37090b7d312e53e23261cc83ee044e676cb5d38
719d6d1db7033f11f2e1de844d73bca5e95e84937913a2e2ec9a55642cefce2ed79058b48c495ff1c2ade808122dba4931ab4ebdb2167795d777e44b59cf9912
a1251befcad221578d3338a840a781612ec82833fbcb5fa9be903d027f343d19ff0c720e5dfe860defb99795a44c084a9178c774c3cefe498e11802ebd0f0396
c87096aff0a922fd8e92bd255daad867fe52dd637248243cd17ea5623aa13e10e4d938c42f710e105a57ef3b6931dd52096ab308eb43a6f7428d9108fa9c67e0
e6fdd0030a5dfd8187cb513d0c1b400fcbb2ea6215e3cc61e6f4e6a127f0692c94fc3816cc676330b5a60527c2a5f8039ef53dda5d69f9901b3d9bacc4091d05
51b3bd2b131a7c43056b335f84c380a869e8ad9aef91e2da61a7951d3ba04de9d79058b48c495ff1c2ade808122dba4931ab4ebdb2167795d777e44b59cf9912
00f28abc7aceaaf186b1121d07c4f382b71e15b4e4cf8b3de296acf70e380b2d4a0fab6b3d106ea8f1d8da39dcdbb56f78b8a7518f0f3d273e5c2d8fe68ec814
75bd522486d78bd3d59ae1ac026430d7cdf0c0a4f3e32c08c3ff75b04420186f28159681934679c9ee288542f545ecb50a3bcc2f4f0a921e135b427962cd10a2
cb3820370218bd63081bfd6bb76a73ab8991bd0b01794cac5899505d2532826be1c5839e7ef6a0e08a5e76791a4d3c84f57802d56186eeabc2178939cf7dfe44
ba36c211f67b8a42ec25759e3c9b86b8629b72e50bc0855b819b2020b157329a2bb08ea2ca2b39f5f41a7b739d3783218ee0e724a3749847b7cc72bad9bd2f47
525096e07cdc7a0f2d9e7950287bc80fc93062d5e5f23eb0ddbb13b16b02bbd4ddff1c24dd36b0ad70177495b8bd360e1b3f84937fa08598c3335740352895ab
43ad3a9f2fd45f95c88bc50c84bc6f2addb208db1ee1e6fd72781cb1eacd7c51f22c5eb00a3cc78809289ff1a6586c63e25c4ac39563ee697c3baf65972e1c97
7597b5f85b5a9ac61495d07ac9ccafa794fc3816cc676330b5a60527c2a5f8039a38847c9d29dbd44f812ee45e3d1b512c3dcccf62a46bfa8480596ea131c1ba
$CDNENCFINISH_ADV2
.ENDS ONE_SHOT
*$
.SUBCKT DFFSBRB_RHPBASIC_GEN Q QB CLK D RB SB PARAMS: VDD=1 VSS=0 VTHRESH=0.5 
$CDNENCSTART_ADV2
17f62b1fb318c25603aeb85644ae98a5d179ef807807791f6459efacb9d7ffc37a831b146dc0f06bb1ef275619162e6d8f7ad0dc708bf15ae1a1d5bd0ae623b2
7747f9c8b4acb509a90183d92a368fa89d5efa19f40de80ee4c0ace54420a0c0f2b1de142a9eea321884091e6b6ad34ac3ace967d51e50a84538ba56cfaad67c
96d8500a61f8a7d6dba13f31f17c33e4c9e31f592bcfa0d8b05a0a114ba138d8629b72e50bc0855b819b2020b157329ac964e6cccfa06d500e06c2b6ac9c1286
04e5f6582aab220a5aefd93e85b043fb2bdebb2fa6993ea24829dd8d71ea27cf47c2234b0a69ef047439240b1dff40a9825366a9fdbc1e4a0cae178156c8a6b8
02cbbe9f3afc5e4e49f4f25317b6922bab7d021a460e98897c62268227e4dbcdfe52dd637248243cd17ea5623aa13e10d49aa76ce2f528b0c5ad93a7d9bd6759
434be834652ed322987c1856113dfbac2ea2528501a8304b1e9193fd79b1e51e8dd037a926b8138024c1ce4cb7f3ae8faffb7b8132f6600638f83f6a37bf7648
c06f2738a54ffeba532034df0ff175da31c9f439b1f6933fa56b280618b3efd9629b72e50bc0855b819b2020b157329ac964e6cccfa06d500e06c2b6ac9c1286
0a905bdafa4ae6b444213234c02382d920db04f08aa2509f5591e5002179bec8d79058b48c495ff1c2ade808122dba4931ab4ebdb2167795d777e44b59cf9912
b76428a4d521a18bf4d9b822b4b74dd505ad612af00cf8efc296f311e36713d018dc8207942309a266e0103b71aca101cf65516317c3b1307993b29422e5b0af
77a9f014aeb2852a5a943c67091d272eb6a35eb64477e6059053d0313ed3e1b8fe52dd637248243cd17ea5623aa13e10d49aa76ce2f528b0c5ad93a7d9bd6759
63dfa563a52366a7009ae784f308bbb4f004fae8cf06901bb7ebd4d7e00574b889b678395e5f0f258d5f346e4cbaab9d5895428c2fb57b990b245355b12cb2fe
682ce7f9779603fea2215fffe216780394fc3816cc676330b5a60527c2a5f8039a38847c9d29dbd44f812ee45e3d1b512c3dcccf62a46bfa8480596ea131c1ba
d05a4976ce49c68a04b892a95560931ee956efe103300c357c05aadb22060ff882946dfbb12e1527b18b1f0007ba2971b8b0e8a675a02ee12c45231bb2ce6ce4
03c5dd24f92247ae812e5921989385368cd3a1e2a88cb49c4af745c52ea4ff82e1c5839e7ef6a0e08a5e76791a4d3c84f57802d56186eeabc2178939cf7dfe44
08fd97181fe80f317c3de6b856c9e9dc8407cdc65429157d2af0daf8b5153ada3ac909ed455465fad1165a8e988a494080816746389bdad84e958d418cdb7e4c
6de92a30c7e24aac4383dab35546c3ac48864f41520841e6baaaf182b6d8116f1d1ac11084e7095ab08ed85e9686f35f0d733bafee2f81f196cd26862d7cad39
629fdabf11628c9e458a140b7027308d629b72e50bc0855b819b2020b157329a2bb08ea2ca2b39f5f41a7b739d3783218ee0e724a3749847b7cc72bad9bd2f47
2ae002de62ca49edd3d7749f73abe61217a7aa54b96bd67e76a15f0de1a4e68f2ae576b0bfeeda7c494a381cb0e3edbeaa834ae39407c0a3bb4eca9a5225fa72
132d42a4b5c98fa3b339259b3bdf874e629b72e50bc0855b819b2020b157329a2bb08ea2ca2b39f5f41a7b739d3783218ee0e724a3749847b7cc72bad9bd2f47
f604ce2c74adcd0a85c3162b5845e9dbd79058b48c495ff1c2ade808122dba491ff6e65cd98481291f4064b2b8f0d73d84a1d0e0743af065a9be925f53064b19
f5d5d566e0c6f60f7c1980cca00ba58033ab07fb0e75e968d5d81c2e0f56ab72e1c5839e7ef6a0e08a5e76791a4d3c84f57802d56186eeabc2178939cf7dfe44
5c464a0fcfad8c1065436a1eb60ae6369c0248d7036a44c4f2ea90684eb4ce38e1c5839e7ef6a0e08a5e76791a4d3c84f57802d56186eeabc2178939cf7dfe44
7d84154ec2b7377240ddd4ff307ee0c0629b72e50bc0855b819b2020b157329a2bb08ea2ca2b39f5f41a7b739d3783218ee0e724a3749847b7cc72bad9bd2f47
45218cdc5ef1898bc78064f5e23b6996ddb208db1ee1e6fd72781cb1eacd7c51f22c5eb00a3cc78809289ff1a6586c63e25c4ac39563ee697c3baf65972e1c97
e5a343ac6e6c6c52a90e34c76a1642c4ddb208db1ee1e6fd72781cb1eacd7c51f22c5eb00a3cc78809289ff1a6586c63e25c4ac39563ee697c3baf65972e1c97
68b6913f641a9aa7ea2e04a7d4a90cc3abd60f35fab1cd1239c19fba482afa1909a33cbba67efd0331e3a2712a99ec03fe4d8dbbf9fcee39014f82e47eb757e7
b89f422e9fdd55d85b1b31a119a7c08378c224d6ecb9ff3038a06c7351be7655313760b487d1004cdd5360caa4060c0f2ba5118ccb6a26403667f5c5674b00fe
$CDNENCFINISH_ADV2
.ENDS DFFSBRB_RHPBASIC_GEN
*$
.SUBCKT DFFSBRB_SHPBASIC_GEN Q QB CLK D RB SB PARAMS: VDD=1 VSS=0 VTHRESH=0.5 
$CDNENCSTART_ADV2
17f62b1fb318c25603aeb85644ae98a5d179ef807807791f6459efacb9d7ffc37a831b146dc0f06bb1ef275619162e6d8f7ad0dc708bf15ae1a1d5bd0ae623b2
7747f9c8b4acb509a90183d92a368fa89d5efa19f40de80ee4c0ace54420a0c0f2b1de142a9eea321884091e6b6ad34ac3ace967d51e50a84538ba56cfaad67c
96d8500a61f8a7d6dba13f31f17c33e4c9e31f592bcfa0d8b05a0a114ba138d8629b72e50bc0855b819b2020b157329ac964e6cccfa06d500e06c2b6ac9c1286
04e5f6582aab220a5aefd93e85b043fb2bdebb2fa6993ea24829dd8d71ea27cf47c2234b0a69ef047439240b1dff40a9825366a9fdbc1e4a0cae178156c8a6b8
02cbbe9f3afc5e4e49f4f25317b6922b81fba6e77d6309d3ddbf4bd80c18135c89b678395e5f0f258d5f346e4cbaab9d5895428c2fb57b990b245355b12cb2fe
434be834652ed322987c1856113dfbacfab582712699d9e8cb3de8f3edb7846609bd9ac54e17b61b9458b331b94780a3abb839ffa94c641e6bd8409422b291c0
74de13319f1543f75733a49b20da99b971c9fa05c911bcb0e8e04122af472df01d1ac11084e7095ab08ed85e9686f35f0d733bafee2f81f196cd26862d7cad39
0a905bdafa4ae6b444213234c02382d920db04f08aa2509f5591e5002179bec8d79058b48c495ff1c2ade808122dba4931ab4ebdb2167795d777e44b59cf9912