**$ENCRYPTED_LIB
**$INTERFACE
.SUBCKT Assigned_Top_Level AGND BOOT1 BOOT2 CDC COMP DITH EN EXTVCC FB FSW ISN
+  ISP MODE PGND SCL_NULL SDA_NULL SW1 SW2 VCC VIN VOUT  PARAMS: fast_startup=0
$CDNENCSTART_ADV2
17f62b1fb318c25603aeb85644ae98a5d179ef807807791f6459efacb9d7ffc37a831b146dc0f06bb1ef275619162e6d8f7ad0dc708bf15ae1a1d5bd0ae623b2
e644a54f98b6bb4a6417a41b653589bb8bac604b0169a6b5195da99bbbddc8477437a506f9c445787ef7cdecd72ab814dd432effac6fc5e13789c2a87aa1316e
97f30e3a8b9f18f78d88ecacb2af9001bfa36a92e2659cb2e1743196d0deb40fe4d6824618a3f506961b9fd31aa85c4278ec588c38fba11857deeac9df0bb622
c4c85a93807210d9aa0ee799f7bb7568e9d9ff6da909ce534df145047ac5962523f22848b1b7d0cb75bc3af237e90d03ecd2a8137e9549654b4283b5fc565719
47655d1589298c3a85394add50fa0d7bac86d3fa762c5e84f50d541b58ddcd9fbdf14b192407f75037b3f6db105a3a5238b8f2829b107f433070b96fe96d0cbe
f6a6d405db9a40df9e7a560da40d8f2fdafeb9bcea74bfc8a004bb0a24c0e31ee2ee4b17fbf674bdd8aa0556f6340ff5412492cf881db97bbc0622c98e2eb111
42eec700bcbf2c1070bb1c41e9d13afc69d91da15bf250e5a0e50d8a8d2b58cdddb13d8651dc02c2a47cd375180fb0b2b46064b3ce828b1f6cf1d21bab69761e
f838c4fdd988f61d5aae907f65accc8fda3c86c6010da3ea37ea7e95b67bff94f8ebec3db32243561ceffd0a798bd8a37a3707c595f57f6b2eebf3026d2362c5
e1b803e781e68e246cefc2eb4823408af65c3f6ff51a851b5e5ac6cfc691c89783b951e96b9a24bee6a608afb87f5ae42b38b23f721bfd5c73b143dbf794b836
974164a736b3a29f70dcc2daa818c8738d2077cea7c2c33923805d447f111bd427f04b174b315ee19a713578ff5aba6c825b28b663fa87c8be68c876264ecf02
6a72bf227a30c0915ad182b245720cfefc52540efaff36125d62aca1316485dbefe44a0d64f620fc2bc021cb31831611345b1da526bacda987e13e7850a8775a
a6ba35b51b3163a150c8457860bf69a971e2a28f250c2c61bcadb8faa83ae7a1e6f5edd8ce44e7c7b53c52d4d76ccd48bab60c6d386b7f4fc23b4fc2cb1abacf
12b930aff8353938477c23a683227557aca3c8b748156d7aa77f40dff5179ec118d60b9506a07648981c560817816433ec467d48608bd836e3323de77b5fcdaf
84eb3c4fae7885653c79eebfee3a167bf2af891b5e21a185d77555d84eb9f23dc86632ae4cdcf3c1ecc4b280017508e0f29a24925a1eb14bda03949a45d2e501
6e6b21f59ba9d27e6b4bc8d01afe5bff9b1581944eae36aa5cbc06b0c12486b60cb52bc6d6e5790cc2008f83cdd63249c964f800e320467a46b4db5237260281
224cedc65acbe20e5cf0a5e7ca58bfe0926e5a70876b94d7f78355494998011947c2234b0a69ef047439240b1dff40a9e973935ae70caedef029461e5e475a26
18ea62c719a27975ce302feb8be7ed8f22dc3ea80cc11b3ef1c8e01297f1f01d3880968c7ee8e8758ce4466d54ddae166938b06b13072be2e00fc40d0a4c698f
46acb2b03d3c0b99af503c286dc1c19f131c9379efbeacc941834bdfe66918dff8ebec3db32243561ceffd0a798bd8a37a3707c595f57f6b2eebf3026d2362c5
d2dcaf44fd15fd86444137a84de324a3f3af57e5cd86906a2cc7772e68b0ace0aa3a2b86693687d3eba6cfb11f6563f464286c8c26a0080c81e3899f192ef18b
ee22c138a0e368324b204e353266b2bcef324eb99cd36fbbe75fb6d025c011c6a514a14bec604dc407debd93302d6c09cef85f186daac5e416937c56b9ca86d0
da2a7b9b50232b7a837e83bf4bd285f6ef324eb99cd36fbbe75fb6d025c011c6a514a14bec604dc407debd93302d6c09cef85f186daac5e416937c56b9ca86d0
803ed7a8f0bc169fc344eda142a00fb1a05ffe924249eead2b5ae292423b1bddaa8a0cec94e0e17e0a4c086839034a9473f9887c33856b1cb989c5d2a1732065
c3f44874dcf675ff251bf70b6a3cc50f0c2919d5e9fe2c9d514f4136531b7ae6bdf14b192407f75037b3f6db105a3a5238b8f2829b107f433070b96fe96d0cbe
2c325694e448a07411925f610cf0fb3d733523a382cc2a3f17b1b3762f177020e055c87f5173c74f2a13c54966be845b7df968bf9ab15f114804698383300dc4
b84c6a97b4c9d9940c1697b5478e882442f90211a71393ba40d6bb6dc92c3115d73dbb3efaec7e41d2b13f73315a47212df7185628ea8fa0d4d08f4246ea5cf6
be0a00b566f8cf51bb40001bdfa73c99f8ebec3db32243561ceffd0a798bd8a3f826b7644d2b68942003fe1a83bfce4f64080bc656ef6b48ea21e406fd4f82d1
f72ae90c43d8751ad2e1bfd773e35a09740c83e49f1bba5adb741deef565e922936ef2640be46089214494d3b9d71ac295851fef9805810ec484e6a80e7f3cee
294c30cfb9b6ea8b8b32a826a6f7dbd540cbec65bcea37511c7070493a7cef8a3787e54f752ba8c260919e5ac6bf5647a63e1d3045a6d2d90aa649108a6868c4
e397ad96d80d5c7162fbdb94467c04b48d2077cea7c2c33923805d447f111bd427f04b174b315ee19a713578ff5aba6c825b28b663fa87c8be68c876264ecf02
0497add0eecd34212221bf13833d936fdb16d9ae9a70ae5084832cc83472211267d9470a18894efc73048c1d60991f752128712853b5415dc8843960525ec4ac
5c5e03b53ed2f7f5697ab4eaa640e10631aea8269273238384f52481850523cf3afc4afc36edf73d00986f9753cdc5d8ac89d43d1695f2a906018e5eed95b702
9ef4b59b82d27b3718d136702c20e10ef8ebec3db32243561ceffd0a798bd8a3f826b7644d2b68942003fe1a83bfce4f64080bc656ef6b48ea21e406fd4f82d1
1890ca944b494abd02aa5d56c56e6339c73bfcacb26b2c221a4f7f6f131166a98e26e315cd6abdda7969fd3f7ae6efe6a54addedda6e0df9fc4d8c9d37d3bfea
e0f3474c658af6d9465e61af2ad1330bc86632ae4cdcf3c1ecc4b280017508e0013a8f7c8911d5831e5afd950f9f14107611a066a9e29690d62e82e4603dc36e
ce3cb9e11a942aac14b1a5d6a080002dca7d1e1d9024509fc5bf78a597a695939d19984bd5d0ee3fb7a3c539c407b378cb772f800553aa1b0637c06dd1235367
8a4510f133eb3919ab5dfb410c72525944f5b769181f93ba3152c857f83e5fc2ddb13d8651dc02c2a47cd375180fb0b2b46064b3ce828b1f6cf1d21bab69761e
d8b672cb3adf6bf20baf5fed4b863e83c0ff3e646656282071bd497013052eee517b91a46b03fc5ab0a2b571d469c6190347ee9ec291a34ba4a6243d3753b510
1ba751021b395a0e59b49d63ad0c39b0b2aa64e1a936ccf423a196dc7aac9bd9bdf14b192407f75037b3f6db105a3a5238b8f2829b107f433070b96fe96d0cbe
89aa460a710fe13d111d93744752ccc75898049ac30b182809bd10cdde5df0806e1973b5c10933fc4cffc765cf6e5891a033caff97430ad24c1511faa2c6fa29
da5ac9af3d848221b2449faee0db8b8bc86632ae4cdcf3c1ecc4b280017508e0013a8f7c8911d5831e5afd950f9f14107611a066a9e29690d62e82e4603dc36e
2c325694e448a07411925f610cf0fb3d6f9d90b4ded3509ad8ebe52fa32f454d48a8a44445fbd6bf41a651015fede38cc2f31f6d0c173fec93f85737df78f564
e6c4d0a5b5e47bd603ec4394fa3d25894d345500cd781ddaaebcfb2587a5142a01fd14c6658d15f83456c3f3e74b2a06ea24a8319591b4c4e75d1d39ae9b3e5e
a96ba3ff224e05a49304539c01f3fdd127a000ed57843b95b970daa8f0c4296e9538c01fc6a8b6afc6f3b35ac62b3c5657703c265bf404c5eb92c936ce169232
5055f023106c02584b92aba1e8078d131e527fb2fb9c9f7a6cf0fdf9452e573aa7888feab2189df3bf94a2d71dc6534e86b3cc4426f08a00b2d091cc806c345c
9d7d8b429e2c263c0842b47795c54224bc4ad7e6fa22ec9621687543f80d1abb46b8c3ff29326aeeba7259cc18121d6074d32d7c73357e78b80071d9b7b9e80c
92d76faa63d15326e77569bef401d9f0c86632ae4cdcf3c1ecc4b280017508e0013a8f7c8911d5831e5afd950f9f14107611a066a9e29690d62e82e4603dc36e
9aa1852b8f77f1a28d42dfc489b457a9bbeaaae708872083870aa714a5c8f244b33217f15d27a1aaadcd73fae4d0750ae73408674b7cfde5d285f6bee3540734
06505942ae66c9f88b2f9aafc92d11ed27c3ed18d0d77d7c0a18e2597e78ce00ed6aff52bb47cf67339fc33ae7261d12df1d9ac7b02b7b3b196ea90c35a79508
cdc21b4863a99369c90c26b2accefc9764c38e9405c7133f5112faf3170f1ca34c6284dae156d2bf3b5f3e21f691266037617c66c3b3a277349d3f446128d473
15dcd6eb19861ce57303a08199891e894952c79d79748eec33917a7bf68f03590d8aa86d9bc241d3d96bd81c6e5f0df1f700b757bf93e19dd0f296b941858436
82bd3eb3bd464cff8d4de169e4f7765422dc3ea80cc11b3ef1c8e01297f1f01d3880968c7ee8e8758ce4466d54ddae166938b06b13072be2e00fc40d0a4c698f
e5a910101f28fc3e871a34114b8040574a070b9dcb1bd6910be35d5165c9c4acf8ebec3db32243561ceffd0a798bd8a37a3707c595f57f6b2eebf3026d2362c5
72028aa33c88721e30f8d6a314daab07539d4ca3b4445e733e0a266e1be31188abacd5e77745653edd17d20305fd427c83b207f708f3611b7ec52712ee754abd
d16a9fae76f139a28110ff8229c4ea7db77533204e6e8595e5a86d3820902bab4c64970b0a03c0bd782fb0fe494fe7b2f8983507fc593da9c0941de1ca7e71e0
6199fe0feb39a4d5c402808ea55606368d2077cea7c2c33923805d447f111bd427f04b174b315ee19a713578ff5aba6c825b28b663fa87c8be68c876264ecf02
5055f023106c02584b92aba1e8078d131e527fb2fb9c9f7a6cf0fdf9452e573aa7888feab2189df3bf94a2d71dc6534e86b3cc4426f08a00b2d091cc806c345c
30899f593d93871f7f729da31528008da1c013f9850f216e3f50df92adc5f698f8ebec3db32243561ceffd0a798bd8a37a3707c595f57f6b2eebf3026d2362c5
8c694ded758c721f2f0fd4855ea9aa1c4c04f8fd7f30cce5bee87c713231d0371ab0c2eed8c268da205d878e4ddf7770c331608cd32de03b37cc02196019f2e7
b0de3d4c7aea60c3d5bf329d37597fa424dbb2ca82d98a9acf1c035b0ea3d5ec08f508f2bbd4f31b5551e0cb47028730cb2fba73ff7be7d7bc388bf446ccdc5a
2fefbde1380ec83bd2a3fa84747a08f822dc3ea80cc11b3ef1c8e01297f1f01d3880968c7ee8e8758ce4466d54ddae166938b06b13072be2e00fc40d0a4c698f
fddc52d1f90c623fd7a734f95ecc663da7cf32da5352084873cb1a457929bf3700dd5a16d71b7e4ed3512ff042da64fdd4088ca2ece60e19103230bd1556b1b6
e4761b299bfc22e138c32867164f39b84e4482ece9fc0ab3c3c6d7fbe0399f1e12d0aeafc299ebb9777ac5d582df3e0b1b30ef67167651dc9c088030d33b52ab
7d522fcb115f7550383c01ca0e91761822dc3ea80cc11b3ef1c8e01297f1f01d3880968c7ee8e8758ce4466d54ddae166938b06b13072be2e00fc40d0a4c698f
47655d1589298c3a85394add50fa0d7bac86d3fa762c5e84f50d541b58ddcd9fbdf14b192407f75037b3f6db105a3a5238b8f2829b107f433070b96fe96d0cbe
fdaf7166b276a59a6634fb8439586bc42e63c0f325c4b6d46298a2c76e773cd3e9d9ff6da909ce534df145047ac596258909022e0933bede3d42f877cd16cafb
1f6f85cb2af6acf47546c4351c3a05ab79a6de7ecae547c4c27515c570fe661e03808b56398e6a66136eaf9ab111047fb8ae9513f516cf41d7f9a1442476dec1
06cc0ca1d5c952d2c2ba1f23de21da14c3f61ecaa3777dbc306963cdea8648d5644f4bda7d2ed4a16c4633622e4c56ec7d6e3e9651e1adef9a782249532132b6
4fbe9fa6d5dc1978d995a4cabf8b1fff58be84c76a2c1b24c468804bcd66abf15c522c87ffded7c9af95aec5aba842a8fd9c24d27a206710ddabb616c5af27f5
df9256f29a02676ae8f28007998fb01327a000ed57843b95b970daa8f0c4296e9538c01fc6a8b6afc6f3b35ac62b3c5657703c265bf404c5eb92c936ce169232
3a8f3d80d854bbf2766973a4bec185a3e9d9ff6da909ce534df145047ac5962523f22848b1b7d0cb75bc3af237e90d03ecd2a8137e9549654b4283b5fc565719
cf1189670346a73470501c1891208e191dda4b3f962ad7c61bb2718ad531b1da4825dfe3978a639b7c054248112479d8008ffd6a51c0eb7508c432615014f0fd
23e3a6f81a7e48ac2f283b4526439e55ae1cbdb26f3265d0b8e175a2e7ca5385617b8623a2913dca0c87d784be48a116c87c71cf72cb939c04d28a26faf8534a
6ea4bde648c2f27f4b7ae74fadc4616a7634a9eaf42fa6d98d38427fb127f067bdf14b192407f75037b3f6db105a3a5238b8f2829b107f433070b96fe96d0cbe
896813d65f42fec15ea3291156be87aaf43b3acb2ace28b434c3c213d0596af02af49f290edde25bc4f4cf22123bc390617df3cd7ea81877558a398c3fa5dbe2
03af0611352bed3fff11c928589d17e78d2077cea7c2c33923805d447f111bd427f04b174b315ee19a713578ff5aba6c825b28b663fa87c8be68c876264ecf02
dbcca916c6546baefb4932d45ee426dba63a52510566c97dc68ac3f7f0a419e89397b8a095a93cb1c2a699284face9bb78f1eccf0c1d9ef4b242ee52ec06eee6
86b34fb9b0f1add5307b165975ef7ad727a000ed57843b95b970daa8f0c4296e9538c01fc6a8b6afc6f3b35ac62b3c5657703c265bf404c5eb92c936ce169232
9aa1852b8f77f1a28d42dfc489b457a9e840af20122146f8547136c473e2c0a14edc1e39e3d3e772193a5c733f646ab879e82cd781108a1c104a26fe2d6e95d6
7578f21b44d9aa681db469e69b3b3c6b91ab50d3ebf6900d53ec200fd17f4c890f300fa94f9d000fbe999561dcf4e1cc37617c66c3b3a277349d3f446128d473
4994cfe566701ed436b87cc1cbbf1d729ea10b40590f39e04f46fbfe19b206eac2205e6b74cfcb7ba803e7fafce07b772128712853b5415dc8843960525ec4ac
f3882e8854e8657df9480c8d8b9d90fecf0f79fe218f5e00101c87fee4935792b98ae7cd6ac13984b5ba8f0c587ed7d67b8fea2affb2aa6e6c3e9c37b91eac68
3dacc8bad128bce61c48ff17cb0ca282502f38afbef333462ecdb88ef2adaf0abdf14b192407f75037b3f6db105a3a5238b8f2829b107f433070b96fe96d0cbe
bfa86a65a3830d8c105f23eb48ae851a745bca39e568657e0768d3a9824740d7ef324eb99cd36fbbe75fb6d025c011c69dce377c2c211c756e5cdbc422928154
6483c70d8fcc157a9845a1ccf0ed40b1a628d7abc6d599addc042b8a89f02a5076bf297638664f3f9a4b89aba87cfbeb452acd4423190202d0f2c5ed00ec3fb3
30f4ed45cf75088e2a068ab4ac867431b65aed7c3252fac21520728b5986f59eef324eb99cd36fbbe75fb6d025c011c69dce377c2c211c756e5cdbc422928154
dcecdd067739ad4a66b1abe3be0647c82ca57254ef584e572604db06e034d8bbc86632ae4cdcf3c1ecc4b280017508e0f29a24925a1eb14bda03949a45d2e501
b4fae2a097568db5a7fa0bbb2a48099e5e1c50e2c77d062b20fc1c5743cb8369f8ebec3db32243561ceffd0a798bd8a37a3707c595f57f6b2eebf3026d2362c5
9fbc246019c7b092a5113c493b5ac78f262f17405c21991ba51102f49c844171ef324eb99cd36fbbe75fb6d025c011c69dce377c2c211c756e5cdbc422928154
8e2ced0c77a0a54a5d4f00fe302ac9c9e44f2a0a3f2fe068c23954d3965a5466bc8ab5d52ed8049aa36a827bd9d35bc353f55fe786558f2d3966c083188b9b5d
f19d661165858210d83bb7599a5dfbbe7634a9eaf42fa6d98d38427fb127f067bdf14b192407f75037b3f6db105a3a5238b8f2829b107f433070b96fe96d0cbe
62ca834dd860938996b2fab665da22bea7888feab2189df3bf94a2d71dc6534ed6437397fe847c41e683b2f50eaff188f768ca090464705119d948912b980b66
b724c33e55db36604f51013ca4436cfd52dbc017eaa2dfca965694d4a5e4c844c3f61ecaa3777dbc306963cdea8648d5ccd65857269cd66c02031277d5222b96
af7c459b8901c6e82f2ee7532bb50ca5f1cde8c88b075aa46b6ceb9cf4d1ebd88d10f66ef5ae26d0fe79b219f9c661da2733009bd31a26f0cbdac578d629b1bd
75767f4b5471428a43b572304310670ff34531cdded2b03ae28e0cd262b2615dd443316d3e2d26c19733b4d1e3aebe19b46064b3ce828b1f6cf1d21bab69761e
04bc81d8c018f676f070e8337059d8a26c8f46fc5a7a2028e1d11a1eaef14d53d265c02107b45bf4ee263f980d7505688490a3d2f0183ec51d9ea7387f26389a
47c2234b0a69ef047439240b1dff40a91dfc67b891dc1ca098c8930ffec1ac31bdf14b192407f75037b3f6db105a3a5238b8f2829b107f433070b96fe96d0cbe
9aa1852b8f77f1a28d42dfc489b457a9e840af20122146f8547136c473e2c0a14edc1e39e3d3e772193a5c733f646ab879e82cd781108a1c104a26fe2d6e95d6
fe890ecd161cfa29c94cec00bb1f8f59296dc63ca2707de53c6b823a6b205d1be2ee4b17fbf674bdd8aa0556f6340ff5d158142620875b89925b0872e9287715
d9f3fbeb72eb38849f591205a35af0e54ef1e5913e06f8a2205669266f2f66f9e111deec121c949eaeafc57f323b464af7081da6214800030e3ad770681f3237
e5f23cd20aaf37833d3c8a0d81f4038327a000ed57843b95b970daa8f0c4296e9538c01fc6a8b6afc6f3b35ac62b3c5657703c265bf404c5eb92c936ce169232
780db60ed4c120378677de8fa52d5a5fc3f61ecaa3777dbc306963cdea8648d5644f4bda7d2ed4a16c4633622e4c56ec7d6e3e9651e1adef9a782249532132b6
0287edca1714f4535ef4b51aa7434c0bf8dcd18d006278b6eb188d75551450b38d2077cea7c2c33923805d447f111bd4c1328d0445e506ed6498b666ea73f490
3eafe8bab34f63bb4718edfb6f1c7a9405e58ad65370dfc57abf2761dfbcc0c060996438ae63aa38d1042962bfc9c7c395be08d5d256506637439593ebe3e645
76ca9e93e3e761852b998296e6329207e9d9ff6da909ce534df145047ac5962523f22848b1b7d0cb75bc3af237e90d03ecd2a8137e9549654b4283b5fc565719
cdc115129fde1010c0db13931c0e538e38e95c5bfdc3005676aff06f108058e7730df4e79347fac8cbd93f7dba69ac904d0c975f9b82944ba4cc60c2eadd5f4a
5dc1fe52e438bb9fae33113614d0b3e29041a5a0ff51dd66febff20724693ac3a7888feab2189df3bf94a2d71dc6534e86b3cc4426f08a00b2d091cc806c345c
d5164bc0270c077ec07ced04fd7c558fec21ccc93c55e2bb71c9d071a677f7fdf8ebec3db32243561ceffd0a798bd8a37a3707c595f57f6b2eebf3026d2362c5
24c4c6c5f998644acf1a5b520a857e582a6acd56339c25f75e433faef08379da55b444bda0399b67d5633ea576466a188664e498fe8cc93e887e59c8f847d3a9
eebe811029a01dd9b739ac6945275091ca8ca2399d0290c859da598b4ce857eae098b32d501607575bc8136534733cb1ae54c9f86225015c9fab0e94e0576729
9ede5d8ff352c7ea506b39c0d4aa6c00b1b360f73e2071b90e54b45faf9854e55f88eeaa261959cf8c8134beb8ef5979050eaa2ab4708a9dddce94b408357ee6
$CDNENCFINISH_ADV2
.ENDS


.SUBCKT BuckBoost_Mode BCK_EN BCK_Toff_Max_EN BCK_Toff_Min_EN BST_EN BST_ONx
+  BST_Ton_Max_EN BST_Ton_Min_EN BuBo_EN BuBo_ENx RESRT Sense2 SKIP_FIVE Skip_Pre
+  Vcomp VIN VOUT VoutH_Pre  
$CDNENCSTART_ADV2
17f62b1fb318c25603aeb85644ae98a5d179ef807807791f6459efacb9d7ffc37a831b146dc0f06bb1ef275619162e6d8f7ad0dc708bf15ae1a1d5bd0ae623b2
46c87ba658dababb43b73a37de2b018b55f01fe712ad70bddb85dca4a86c4d48e098b32d501607575bc8136534733cb1ae54c9f86225015c9fab0e94e0576729
6d4cdae94e2bd0ba595877096f80c6b03c4d143fa0139674f3527c8e45e5cb2227a000ed57843b95b970daa8f0c4296ed8f12568dd2c7286a4cf220a1bb82dc5
3263204a1a1e5d8eb9e94fb2cbe06a72fcbc32e1e777176c7b4862b9daf2450ff04de03371e1c83e90baa827aeb89773e625f91f0841cbc8551d2133e6e0e783
1ba0fda3b074b6d32cd0476a29602894c3f61ecaa3777dbc306963cdea8648d5644f4bda7d2ed4a16c4633622e4c56ec7d6e3e9651e1adef9a782249532132b6
47655d1589298c3a85394add50fa0d7bac86d3fa762c5e84f50d541b58ddcd9fbdf14b192407f75037b3f6db105a3a5238b8f2829b107f433070b96fe96d0cbe
e42b0ce82a00126046629abb40a7f87c6463a87f61d34371305181893bed7bee5908a88bf196ee50e1af4d0d9ba24041ea24a8319591b4c4e75d1d39ae9b3e5e
a96ba3ff224e05a49304539c01f3fdd127a000ed57843b95b970daa8f0c4296e9538c01fc6a8b6afc6f3b35ac62b3c5657703c265bf404c5eb92c936ce169232
c90481ee0af7386efee3fdffc85162c63625ddb8135bf8832d7b79c86fe324fb22dc3ea80cc11b3ef1c8e01297f1f01d850d8572e7eaa05f82e3884e770caaa7
fc88505684fa5d5461efd5fc6340e64c8c1a2a0b61f2b3a13bc691539d74fbe9f8ebec3db32243561ceffd0a798bd8a37a3707c595f57f6b2eebf3026d2362c5
46e5c9a040a3b5f396eefc7c8a806c7478bbfc4d9cabb04f9d1bfcc3aa3c50fa7c85082446b2bf6aefc71422c3aecbef78ec588c38fba11857deeac9df0bb622
c4c85a93807210d9aa0ee799f7bb7568e9d9ff6da909ce534df145047ac5962523f22848b1b7d0cb75bc3af237e90d03ecd2a8137e9549654b4283b5fc565719
c90481ee0af7386efee3fdffc85162c6e56900a6ab1bfcdd8561bf9743273e0fb33217f15d27a1aaadcd73fae4d0750ae73408674b7cfde5d285f6bee3540734
928b648dabfe0820903919076bcc5b5056814367e4f419c4937b5e5c7a7ce1859cf987c12f16c3641e528985446f7410ea24a8319591b4c4e75d1d39ae9b3e5e
a96ba3ff224e05a49304539c01f3fdd127a000ed57843b95b970daa8f0c4296e9538c01fc6a8b6afc6f3b35ac62b3c5657703c265bf404c5eb92c936ce169232
c90481ee0af7386efee3fdffc85162c6d835bd7f3f24879cf28dddf5c6e074b3b33217f15d27a1aaadcd73fae4d0750ae73408674b7cfde5d285f6bee3540734
e7d117a08db8273b42d36d3c44fe4c52ce78685fcca728f4714eb59c7b360bafdd0bce2f3e9875b87bf5e1f049ec0a75ea24a8319591b4c4e75d1d39ae9b3e5e
a96ba3ff224e05a49304539c01f3fdd127a000ed57843b95b970daa8f0c4296e9538c01fc6a8b6afc6f3b35ac62b3c5657703c265bf404c5eb92c936ce169232
47655d1589298c3a85394add50fa0d7bac86d3fa762c5e84f50d541b58ddcd9fbdf14b192407f75037b3f6db105a3a5238b8f2829b107f433070b96fe96d0cbe
689c2e12a2e6ff4f4cc4ab05fb66865efd1f7df647ab6c5ed836477eb04cf0bf50903ed7a3ec8d4231b9ed5a5c842e3cb81c11797b9cfd56ffb2d237a19234e1
5fcfda20859606935942e4c5a6c27cd7f8ebec3db32243561ceffd0a798bd8a3f826b7644d2b68942003fe1a83bfce4f64080bc656ef6b48ea21e406fd4f82d1
910301d70f931d569b3b3d67721bb5453906bbf5a3d3ee1ff156c2ffb06eb72efdea0882b16c8eae28439e72b24a30f0452acd4423190202d0f2c5ed00ec3fb3
71ba8bac544329c31b5c0269b5265e2aad73557206aa16eace734e3ae5973be8a5107e653aad2922f7f5c77c0875e694d86a52b5acc6e38e7f9c003ce1193477
fb04deaf8bd6d37300233099af2746fa5639ae5962c0e2e7eac32d40c41784e3bdf14b192407f75037b3f6db105a3a5238b8f2829b107f433070b96fe96d0cbe
8dbbb958602553232ee699663985026bf27df898a28dba987622e4c27b2d4151c3f61ecaa3777dbc306963cdea8648d5ccd65857269cd66c02031277d5222b96
53e3938279d93cfc93e63587066cafd099036652f275c372a883431914a3045c1da1f8e07860e89929c917629af4cfc074d32d7c73357e78b80071d9b7b9e80c
92d76faa63d15326e77569bef401d9f0c86632ae4cdcf3c1ecc4b280017508e0013a8f7c8911d5831e5afd950f9f14107611a066a9e29690d62e82e4603dc36e
9aa1852b8f77f1a28d42dfc489b457a9bbeaaae708872083870aa714a5c8f244b33217f15d27a1aaadcd73fae4d0750ae73408674b7cfde5d285f6bee3540734
38df4d9666535402d3283f3e6080542e888176461e7d6c2c72c1c54aa484738ac526dcab727aeca7ff3f72566c40d6561b30ef67167651dc9c088030d33b52ab
7d522fcb115f7550383c01ca0e91761822dc3ea80cc11b3ef1c8e01297f1f01d3880968c7ee8e8758ce4466d54ddae166938b06b13072be2e00fc40d0a4c698f
47655d1589298c3a85394add50fa0d7bac86d3fa762c5e84f50d541b58ddcd9fbdf14b192407f75037b3f6db105a3a5238b8f2829b107f433070b96fe96d0cbe
e9a12d3e83299d8d28ed21097f6355d1a2d7ce34dedf339e90fe83e5192bfda78c36f2fae4eadbd83020dbe32ea0732d5101dd5a5391b5d0987f8f9782b2d54c
92d76faa63d15326e77569bef401d9f0c86632ae4cdcf3c1ecc4b280017508e0013a8f7c8911d5831e5afd950f9f14107611a066a9e29690d62e82e4603dc36e
9aa1852b8f77f1a28d42dfc489b457a9bbeaaae708872083870aa714a5c8f244b33217f15d27a1aaadcd73fae4d0750ae73408674b7cfde5d285f6bee3540734
c8aeda63474b52a2f30a4a73630fa04e11f2a59474c2856b9d88d55b58bd9482f353d5086569bd4320dc815f7dbf6f511023287508a499a8f3a6782a13c6bccd
01e5b74784dbe6f54b2a8b511911b85470ccc77b05315ed608c1558fda15c4b5b262da07fabab84dbacd814fbc81ff48bbe4988bfd3833ef65921210592e558f
47655d1589298c3a85394add50fa0d7bac86d3fa762c5e84f50d541b58ddcd9fbdf14b192407f75037b3f6db105a3a5238b8f2829b107f433070b96fe96d0cbe
9096b5a737c5b62a693c40e4b3611f1733e9cc07e0fa9d6949d48eb64ecb07279911dc610dd444be48fcd53725300f1d23c63c90aee4bcae147422e3a962432e
7d3fb66d8cf1e784dad7ab7fd3cf6c202ea97ed237792b16df32581747729493ea00f998705bbb472698af1de52f32381dcd47994cacbca84468e2bc9c46c3db
24635674630316ccc9a7a7864f0831a5fd6324e1248419d40912ee41a7b76bd5bdf14b192407f75037b3f6db105a3a5238b8f2829b107f433070b96fe96d0cbe
d5f093090103febd394a235e609299aa01e5b74784dbe6f54b2a8b511911b85470ccc77b05315ed608c1558fda15c4b55ed897a5b889b95c5ebb4bfb2888f929
aa7afa31b9ea3e810138409462a2269391eadb9eb7128cca546171cbcae8af5c640e334a6817a69a621384a5ba99975678ec588c38fba11857deeac9df0bb622
c4c85a93807210d9aa0ee799f7bb7568e9d9ff6da909ce534df145047ac5962523f22848b1b7d0cb75bc3af237e90d03ecd2a8137e9549654b4283b5fc565719
c90481ee0af7386efee3fdffc85162c6e56900a6ab1bfcdd8561bf9743273e0fb33217f15d27a1aaadcd73fae4d0750ae73408674b7cfde5d285f6bee3540734
48c7d787092e2c3bf06b147b6ee8a8f744bfe6a5a8790de19803db43e44484fd32e6c4ba3875f9bae1b3fd700dfab993ea24a8319591b4c4e75d1d39ae9b3e5e
a96ba3ff224e05a49304539c01f3fdd127a000ed57843b95b970daa8f0c4296e9538c01fc6a8b6afc6f3b35ac62b3c5657703c265bf404c5eb92c936ce169232
c90481ee0af7386efee3fdffc85162c63625ddb8135bf8832d7b79c86fe324fb22dc3ea80cc11b3ef1c8e01297f1f01d850d8572e7eaa05f82e3884e770caaa7
27c584d17b691519a4d25a2303a5a8fd447933a2ce9c3d21b8532742b7072991f8ebec3db32243561ceffd0a798bd8a37a3707c595f57f6b2eebf3026d2362c5
b5cd4086a66b130796c53271829d823995b7d736244284a1d7f5110ff839a0f3e6f5edd8ce44e7c7b53c52d4d76ccd48bab60c6d386b7f4fc23b4fc2cb1abacf
9d034cc1fdcdbb710005a0ab5fdeb2a21bcce1d8995502cbff2e18f15de15a1e239bb30643577ef99ff555ca9797262b64286c8c26a0080c81e3899f192ef18b
ee22c138a0e368324b204e353266b2bcef324eb99cd36fbbe75fb6d025c011c6a514a14bec604dc407debd93302d6c09cef85f186daac5e416937c56b9ca86d0
47655d1589298c3a85394add50fa0d7bac86d3fa762c5e84f50d541b58ddcd9fbdf14b192407f75037b3f6db105a3a5238b8f2829b107f433070b96fe96d0cbe
6e2a0b116a3c6d5f367f0784e8f36eb1f39ce1680dead91b26fb6463f831a78bf0781104586b2ac3f6799bcde6cac563f24a63f235a281dee7d4b26b3ce2dd5e
fb04deaf8bd6d37300233099af2746fa5639ae5962c0e2e7eac32d40c41784e3bdf14b192407f75037b3f6db105a3a5238b8f2829b107f433070b96fe96d0cbe
8dbbb958602553232ee699663985026bf27df898a28dba987622e4c27b2d4151c3f61ecaa3777dbc306963cdea8648d5ccd65857269cd66c02031277d5222b96
90e32d8b4e125ef613a01776b881ee682f449e6a862c9e085299c595b0753b0ed7000a98a345b84b434be25daeaade53b0ae236bec0fcabd91f23d2ba02ffa2f
1a39b7db8fa627b1c6af818a9c814adbfd6324e1248419d40912ee41a7b76bd5bdf14b192407f75037b3f6db105a3a5238b8f2829b107f433070b96fe96d0cbe
47655d1589298c3a85394add50fa0d7bac86d3fa762c5e84f50d541b58ddcd9fbdf14b192407f75037b3f6db105a3a5238b8f2829b107f433070b96fe96d0cbe
a0a5976ee2b025a2acf37ccb0ce9474c99036652f275c372a883431914a3045c4a3ed6ec0e941835336bf43e1e4d5d9e74d32d7c73357e78b80071d9b7b9e80c
92d76faa63d15326e77569bef401d9f0c86632ae4cdcf3c1ecc4b280017508e0013a8f7c8911d5831e5afd950f9f14107611a066a9e29690d62e82e4603dc36e
9aa1852b8f77f1a28d42dfc489b457a9bbeaaae708872083870aa714a5c8f244b33217f15d27a1aaadcd73fae4d0750ae73408674b7cfde5d285f6bee3540734
f8254b4acb3c94d1b62170c36c5265df4e1c400735c7eb63ceafda0b7ad2b1b232ba59208b559cd0c00d8f34b455df5ef20addfce95f052a58ed6da7d78ee230
718a0efb0caf7874a33cb92a7781fbe3f8ebec3db32243561ceffd0a798bd8a3f826b7644d2b68942003fe1a83bfce4f64080bc656ef6b48ea21e406fd4f82d1
9aa1852b8f77f1a28d42dfc489b457a9bbeaaae708872083870aa714a5c8f244b33217f15d27a1aaadcd73fae4d0750ae73408674b7cfde5d285f6bee3540734
8e3bca05dd541313a275e6dea8815f31fd1f7df647ab6c5ed836477eb04cf0bfecc62cbf01fb68f0bf7d87824593c44389d21248f2c8d748c77cbe0187535229
a8f59f46f47af6fe997b47ea371f79f1ef324eb99cd36fbbe75fb6d025c011c6a514a14bec604dc407debd93302d6c09cef85f186daac5e416937c56b9ca86d0
910301d70f931d569b3b3d67721bb5453906bbf5a3d3ee1ff156c2ffb06eb72efdea0882b16c8eae28439e72b24a30f0452acd4423190202d0f2c5ed00ec3fb3
41dc986488a05b1ec8aae3b6e401693fd5a719c9b7d0b63c8e1a7ce7be76f49964dbe8850b3760b6b1bd4bf78f97fc066b28e3a0b37f42b1c7154f53fee4ad9e
c239fc0d16001c17e24be7b0b69f6c6bc86632ae4cdcf3c1ecc4b280017508e0013a8f7c8911d5831e5afd950f9f14107611a066a9e29690d62e82e4603dc36e
8dbbb958602553232ee699663985026b9ef4b59b82d27b3718d136702c20e10ef8ebec3db32243561ceffd0a798bd8a37a3707c595f57f6b2eebf3026d2362c5
d40596f693c753a6f8a8bc58b201b3704500e3f17430da897f0d6d4fb8e6a6bf7c4d93ccfb1a1d2609dfd54019aa01d6d2d2b9e6e9dacef43dbf5d75a8b8e803
3afc4afc36edf73d00986f9753cdc5d827a000ed57843b95b970daa8f0c4296e9538c01fc6a8b6afc6f3b35ac62b3c5657703c265bf404c5eb92c936ce169232
8dbbb958602553232ee699663985026bf27df898a28dba987622e4c27b2d4151c3f61ecaa3777dbc306963cdea8648d5ccd65857269cd66c02031277d5222b96
c68d9621b917d41e818259d40d11db556ee2e6440851a69933973b6eae9439bffb04deaf8bd6d37300233099af2746faf9dff59ca4f863b3e9e0d035b8f735ce
5d030711824d437fac82f6befb8ed01def324eb99cd36fbbe75fb6d025c011c6a514a14bec604dc407debd93302d6c09cef85f186daac5e416937c56b9ca86d0
baa2b6998a22735424cb6b9d0c932f639f9f1718ce5084690763fe6ee7dd24fdc3f61ecaa3777dbc306963cdea8648d5ccd65857269cd66c02031277d5222b96
41e6f88b0dce19339e6ba881ab520db3af04542d6f37543b844fdcfad2ca234f5f3528372dab4ddba43f879ee51ff272ea24a8319591b4c4e75d1d39ae9b3e5e
a96ba3ff224e05a49304539c01f3fdd127a000ed57843b95b970daa8f0c4296e9538c01fc6a8b6afc6f3b35ac62b3c5657703c265bf404c5eb92c936ce169232
c90481ee0af7386efee3fdffc85162c63625ddb8135bf8832d7b79c86fe324fb22dc3ea80cc11b3ef1c8e01297f1f01d850d8572e7eaa05f82e3884e770caaa7
0998d36da0b538ea0e3499c5173d8546552a94118b4bb0f7832b0ff2695e4d73da68716e24d6a62ce32a188caa1d705ac2f31f6d0c173fec93f85737df78f564
aee07e08a47803859475c6446781c0807a933ecf92b6d045a6ba42fe52cf2480a9ad9112296e9ef7d84c0a91f31d2b92e625f91f0841cbc8551d2133e6e0e783
1ba0fda3b074b6d32cd0476a29602894c3f61ecaa3777dbc306963cdea8648d5644f4bda7d2ed4a16c4633622e4c56ec7d6e3e9651e1adef9a782249532132b6
47655d1589298c3a85394add50fa0d7bac86d3fa762c5e84f50d541b58ddcd9fbdf14b192407f75037b3f6db105a3a5238b8f2829b107f433070b96fe96d0cbe
dcbb5790815de54ad30e209c5852d90481df708de913ffc6bf697d1f31ea2d11e313a234ef1b7184ce923d35995436f52137930f995f317227486735c0e8861c
5fcfda20859606935942e4c5a6c27cd7f8ebec3db32243561ceffd0a798bd8a3f826b7644d2b68942003fe1a83bfce4f64080bc656ef6b48ea21e406fd4f82d1
910301d70f931d569b3b3d67721bb5453906bbf5a3d3ee1ff156c2ffb06eb72efdea0882b16c8eae28439e72b24a30f0452acd4423190202d0f2c5ed00ec3fb3
92bd11e459716aeda2f344cb3ab7ebc110e77e246abf4d25cdd0b3cca1788514f7dd59b9821a983b0db6a5e088b12c8db0ae236bec0fcabd91f23d2ba02ffa2f
1a39b7db8fa627b1c6af818a9c814adbfd6324e1248419d40912ee41a7b76bd5bdf14b192407f75037b3f6db105a3a5238b8f2829b107f433070b96fe96d0cbe
47655d1589298c3a85394add50fa0d7bac86d3fa762c5e84f50d541b58ddcd9fbdf14b192407f75037b3f6db105a3a5238b8f2829b107f433070b96fe96d0cbe
4009a85d2b3c16d0b50e85f37b47ad0678bbfc4d9cabb04f9d1bfcc3aa3c50fa91ec1230c396bbf93d29e87cb78e5dd864286c8c26a0080c81e3899f192ef18b
ee22c138a0e368324b204e353266b2bcef324eb99cd36fbbe75fb6d025c011c6a514a14bec604dc407debd93302d6c09cef85f186daac5e416937c56b9ca86d0
47655d1589298c3a85394add50fa0d7bac86d3fa762c5e84f50d541b58ddcd9fbdf14b192407f75037b3f6db105a3a5238b8f2829b107f433070b96fe96d0cbe
b022f52c8b0afc3a9b0561f634b9b8a74af2fdfe3258d97a65eb4d466caeb2d5b1a1b6cf1ebecb88d5b62f06bf85d0c8ce7b39b0b75f30d6438e3ffd30228508
b7c78ae48b86e292bbf33ff66b685792b7735a29ddfdf881dd0b3a5dc89863eb98ff9804dc375869fbcd03bfa1df6ac8a1ab6fa3491a8c878b6ba0c3dff4a240
db57cc599eb46a9a63e2fb2341a34b3764509a869a7ebdb377230197e65ba1c7ef324eb99cd36fbbe75fb6d025c011c69dce377c2c211c756e5cdbc422928154
6c99c0210c3f9de948b5ce219e3ebb09311b1ed42ab68e98491c75656f2b93dd242d1105d36011edeada6431f835518164286c8c26a0080c81e3899f192ef18b
ee22c138a0e368324b204e353266b2bcef324eb99cd36fbbe75fb6d025c011c6a514a14bec604dc407debd93302d6c09cef85f186daac5e416937c56b9ca86d0
47655d1589298c3a85394add50fa0d7bac86d3fa762c5e84f50d541b58ddcd9fbdf14b192407f75037b3f6db105a3a5238b8f2829b107f433070b96fe96d0cbe
794219f7acba8ca573125b4291e53a8aaad0de46a383eb3ecfe4ed56faf1d495e999f669bb4633a27e21f0641315b09d1023287508a499a8f3a6782a13c6bccd
01e5b74784dbe6f54b2a8b511911b85470ccc77b05315ed608c1558fda15c4b5b262da07fabab84dbacd814fbc81ff48bbe4988bfd3833ef65921210592e558f
47655d1589298c3a85394add50fa0d7bac86d3fa762c5e84f50d541b58ddcd9fbdf14b192407f75037b3f6db105a3a5238b8f2829b107f433070b96fe96d0cbe
723d7147f53f7a1724541f78283284bc62b408f1b7a74de8e356fd77f6a25510607b54130cb95c8a52a0892172dc2a7fe625f91f0841cbc8551d2133e6e0e783
1ba0fda3b074b6d32cd0476a29602894c3f61ecaa3777dbc306963cdea8648d5644f4bda7d2ed4a16c4633622e4c56ec7d6e3e9651e1adef9a782249532132b6
47655d1589298c3a85394add50fa0d7bac86d3fa762c5e84f50d541b58ddcd9fbdf14b192407f75037b3f6db105a3a5238b8f2829b107f433070b96fe96d0cbe
60a00227edbb241a8e32e744da62e222631c843ce3b76e35bf276e7e7b14a55b458e2defcf17600ff1b9c1ebcc5cbe398664e498fe8cc93e887e59c8f847d3a9
892be9bccb83607476c1ddbf3a31ed9b80f4d4792b74c9215248b52728531e620f7d9d7dd0a4044a6a309d9a2397a8c6f8983507fc593da9c0941de1ca7e71e0
6199fe0feb39a4d5c402808ea55606368d2077cea7c2c33923805d447f111bd427f04b174b315ee19a713578ff5aba6c825b28b663fa87c8be68c876264ecf02
c90481ee0af7386efee3fdffc85162c63625ddb8135bf8832d7b79c86fe324fb22dc3ea80cc11b3ef1c8e01297f1f01d850d8572e7eaa05f82e3884e770caaa7
d93dca16081f33fadff80a5d1a11623d7fd6091f77d6b74b2628388ad0e5d5cec3f61ecaa3777dbc306963cdea8648d5ccd65857269cd66c02031277d5222b96
f5cb9743d56a26cdba1c24c717b71d03a2fe10e38a8d2e0fa7a6d662539b6394ae9bf2bc204b21a2cc80d49c3a4495a223c63c90aee4bcae147422e3a962432e
037d2601703408099af7cd54886968e91a650aab1bc30c578d0ac96a0f25210d76bf297638664f3f9a4b89aba87cfbeb452acd4423190202d0f2c5ed00ec3fb3
ac81d6ab4f6de8059c2f8687e87ac3627c948b84da8b63c266a5cf3c4ad182a6760f43378d2dd1e8521a3c1cc836673d74d32d7c73357e78b80071d9b7b9e80c
92d76faa63d15326e77569bef401d9f0c86632ae4cdcf3c1ecc4b280017508e0013a8f7c8911d5831e5afd950f9f14107611a066a9e29690d62e82e4603dc36e
9aa1852b8f77f1a28d42dfc489b457a9bbeaaae708872083870aa714a5c8f244b33217f15d27a1aaadcd73fae4d0750ae73408674b7cfde5d285f6bee3540734
b5e05cdc7cdaa9771de385537231721898b1b8c9d02b5ecb4defa87d7fdd9d7904474d492e84c19ee35b284bfde5621274d32d7c73357e78b80071d9b7b9e80c
92d76faa63d15326e77569bef401d9f0c86632ae4cdcf3c1ecc4b280017508e0013a8f7c8911d5831e5afd950f9f14107611a066a9e29690d62e82e4603dc36e
9aa1852b8f77f1a28d42dfc489b457a9bbeaaae708872083870aa714a5c8f244b33217f15d27a1aaadcd73fae4d0750ae73408674b7cfde5d285f6bee3540734